/*---------------------------------------------------------------------------*\
| =========                 |                                                 |
| \\      /  F ield         | OpenFOAM: The Open Source CFD Toolbox           |
|  \\    /   O peration     | Version:  2.4.0                                 |
|   \\  /    A nd           | Web:      www.OpenFOAM.org                      |
|    \\/     M anipulation  |                                                 |
\*---------------------------------------------------------------------------*/
Build  : 2.4.0-dcea1e13ff76
Exec   : funkyDoCalc WallHeatFluxCalc -time 0:100
Date   : Sep 04 2015
Time   : 16:49:04
Host   : "MNE-ALRA12-L"
PID    : 6953
Case   : /home/arattnerlab/WorkingFOAM/CFD-PC/interThermalPhaseFoam/tutorials/Stefan
nProcs : 1
sigFpe : Enabling floating point exception trapping (FOAM_SIGFPE).
fileModificationChecking : Monitoring run-time modified files using timeStampMaster
allowSystemOperations : Allowing user-supplied system call operations

// * * * * * * * * * * * * * * * * * * * * * * * * * * * * * * * * * * * * * //
swakVersion: 0.3.2 (Release date: 2015-05-31)
// * * * * * * * * * * * * * * * * * * * * * * * * * * * * * * * * * * * * * //
Create time

--> FOAM Warning : 
    From function dlOpen(const fileName&, const bool)
    in file POSIX.C at line 1179
    dlopen error : /home/arattnerlab/OpenFOAM/OpenFOAM-2.4.0/platforms/linux64GccDPOpt/lib/libinterfaceProperties.so: undefined symbol: _ZTIN4Foam35alphaContactAngleFvPatchScalarFieldE
--> FOAM Warning : 
    From function dlLibraryTable::open(const fileName&, const bool)
    in file db/dynamicLibrary/dlLibraryTable/dlLibraryTable.C at line 99
    could not load "libinterfaceProperties.so"
Create mesh for time = 0

No information about foreign meshes in "WallHeatFluxCalc.WallHeatFlux"


Time = 0
WallHeatFlux : swak4Foam: Setting default mesh
swak4Foam: Allocating new repository for sampledGlobalVariables
 average=-162548


Time = 0.1
WallHeatFlux :  average=-21553.9


Time = 0.2
WallHeatFlux :  average=-12971.4


Time = 0.3
WallHeatFlux :  average=-11410.9


Time = 0.4
WallHeatFlux :  average=-9915.46


Time = 0.5
WallHeatFlux :  average=-8615.07


Time = 0.6
WallHeatFlux :  average=-7672.29


Time = 0.7
WallHeatFlux :  average=-8029.89


Time = 0.8
WallHeatFlux :  average=-7054.6


Time = 0.9
WallHeatFlux :  average=-6566.96


Time = 1
WallHeatFlux :  average=-6501.94


Time = 1.1
WallHeatFlux :  average=-5754.22


Time = 1.2
WallHeatFlux :  average=-5981.78


Time = 1.3
WallHeatFlux :  average=-5331.59


Time = 1.4
WallHeatFlux :  average=-5494.14


Time = 1.5
WallHeatFlux :  average=-5006.49


Time = 1.6
WallHeatFlux :  average=-5071.51


Time = 1.7
WallHeatFlux :  average=-5169.04


Time = 1.8
WallHeatFlux :  average=-4681.4


Time = 1.9
WallHeatFlux :  average=-4778.92


Time = 2
WallHeatFlux :  average=-4356.3


Time = 2.1
WallHeatFlux :  average=-4421.32


Time = 2.2
WallHeatFlux :  average=-4486.34


Time = 2.3
WallHeatFlux :  average=-4063.71


Time = 2.4
WallHeatFlux :  average=-4161.24


Time = 2.5
WallHeatFlux :  average=-4193.75


Time = 2.6
WallHeatFlux :  average=-3836.14


Time = 2.7
WallHeatFlux :  average=-3901.16


Time = 2.8
WallHeatFlux :  average=-3953.18


Time = 2.9
WallHeatFlux :  average=-3641.09


Time = 3
WallHeatFlux :  average=-3673.6


Time = 3.1
WallHeatFlux :  average=-3706.1


Time = 3.2
WallHeatFlux :  average=-3641.09


Time = 3.3
WallHeatFlux :  average=-3446.03


Time = 3.4
WallHeatFlux :  average=-3478.54


Time = 3.5
WallHeatFlux :  average=-3511.05


Time = 3.6
WallHeatFlux :  average=-3283.48


Time = 3.7
WallHeatFlux :  average=-3283.48


Time = 3.8
WallHeatFlux :  average=-3315.99


Time = 3.9
WallHeatFlux :  average=-3348.5


Time = 4
WallHeatFlux :  average=-3120.93


Time = 4.1
WallHeatFlux :  average=-3120.93


Time = 4.2
WallHeatFlux :  average=-3153.44


Time = 4.3
WallHeatFlux :  average=-3185.95


Time = 4.4
WallHeatFlux :  average=-2990.89


Time = 4.5
WallHeatFlux :  average=-2958.38


Time = 4.6
WallHeatFlux :  average=-2990.89


Time = 4.7
WallHeatFlux :  average=-3023.4


Time = 4.8
WallHeatFlux :  average=-2958.38


Time = 4.9
WallHeatFlux :  average=-2828.34


Time = 5
WallHeatFlux :  average=-2860.85

End

