/*---------------------------------------------------------------------------*\
| =========                 |                                                 |
| \\      /  F ield         | OpenFOAM: The Open Source CFD Toolbox           |
|  \\    /   O peration     | Version:  2.4.0                                 |
|   \\  /    A nd           | Web:      www.OpenFOAM.org                      |
|    \\/     M anipulation  |                                                 |
\*---------------------------------------------------------------------------*/
Build  : 2.4.0-dcea1e13ff76
Exec   : funkyDoCalc LiquidFractionCalc -time 0:100
Date   : Sep 04 2015
Time   : 16:48:22
Host   : "MNE-ALRA12-L"
PID    : 6950
Case   : /home/arattnerlab/WorkingFOAM/CFD-PC/interThermalPhaseFoam/tutorials/Stefan
nProcs : 1
sigFpe : Enabling floating point exception trapping (FOAM_SIGFPE).
fileModificationChecking : Monitoring run-time modified files using timeStampMaster
allowSystemOperations : Allowing user-supplied system call operations

// * * * * * * * * * * * * * * * * * * * * * * * * * * * * * * * * * * * * * //
swakVersion: 0.3.2 (Release date: 2015-05-31)
// * * * * * * * * * * * * * * * * * * * * * * * * * * * * * * * * * * * * * //
Create time

--> FOAM Warning : 
    From function dlOpen(const fileName&, const bool)
    in file POSIX.C at line 1179
    dlopen error : /home/arattnerlab/OpenFOAM/OpenFOAM-2.4.0/platforms/linux64GccDPOpt/lib/libinterfaceProperties.so: undefined symbol: _ZTIN4Foam35alphaContactAngleFvPatchScalarFieldE
--> FOAM Warning : 
    From function dlLibraryTable::open(const fileName&, const bool)
    in file db/dynamicLibrary/dlLibraryTable/dlLibraryTable.C at line 99
    could not load "libinterfaceProperties.so"
Create mesh for time = 0

No information about foreign meshes in "LiquidFractionCalc.TotalLiquidVolume"

No information about foreign meshes in "LiquidFractionCalc.TotalVolume"


Time = 0
TotalLiquidVolume : swak4Foam: Setting default mesh
swak4Foam: Allocating new repository for sampledMeshes
swak4Foam: Allocating new repository for sampledGlobalVariables
 sum=0
TotalVolume :  sum=1e-09


Time = 0.1
TotalLiquidVolume :  sum=2.02375e-11
TotalVolume :  sum=1e-09


Time = 0.2
TotalLiquidVolume :  sum=2.92853e-11
TotalVolume :  sum=1e-09


Time = 0.3
TotalLiquidVolume :  sum=3.62262e-11
TotalVolume :  sum=1e-09


Time = 0.4
TotalLiquidVolume :  sum=4.21098e-11
TotalVolume :  sum=1e-09


Time = 0.5
TotalLiquidVolume :  sum=4.72989e-11
TotalVolume :  sum=1e-09


Time = 0.6
TotalLiquidVolume :  sum=5.20382e-11
TotalVolume :  sum=1e-09


Time = 0.7
TotalLiquidVolume :  sum=5.63927e-11
TotalVolume :  sum=1e-09


Time = 0.8
TotalLiquidVolume :  sum=6.03149e-11
TotalVolume :  sum=1e-09


Time = 0.9
TotalLiquidVolume :  sum=6.41367e-11
TotalVolume :  sum=1e-09


Time = 1
TotalLiquidVolume :  sum=6.76888e-11
TotalVolume :  sum=1e-09


Time = 1.1
TotalLiquidVolume :  sum=7.10519e-11
TotalVolume :  sum=1e-09


Time = 1.2
TotalLiquidVolume :  sum=7.43423e-11
TotalVolume :  sum=1e-09


Time = 1.3
TotalLiquidVolume :  sum=7.74e-11
TotalVolume :  sum=1e-09


Time = 1.4
TotalLiquidVolume :  sum=8.04343e-11
TotalVolume :  sum=1e-09


Time = 1.5
TotalLiquidVolume :  sum=8.3292e-11
TotalVolume :  sum=1e-09


Time = 1.6
TotalLiquidVolume :  sum=8.60889e-11
TotalVolume :  sum=1e-09


Time = 1.7
TotalLiquidVolume :  sum=8.89421e-11
TotalVolume :  sum=1e-09


Time = 1.8
TotalLiquidVolume :  sum=9.14023e-11
TotalVolume :  sum=1e-09


Time = 1.9
TotalLiquidVolume :  sum=9.40409e-11
TotalVolume :  sum=1e-09


Time = 2
TotalLiquidVolume :  sum=9.64538e-11
TotalVolume :  sum=1e-09


Time = 2.1
TotalLiquidVolume :  sum=9.88955e-11
TotalVolume :  sum=1e-09


Time = 2.2
TotalLiquidVolume :  sum=1.01373e-10
TotalVolume :  sum=1e-09


Time = 2.3
TotalLiquidVolume :  sum=1.03563e-10
TotalVolume :  sum=1e-09


Time = 2.4
TotalLiquidVolume :  sum=1.05864e-10
TotalVolume :  sum=1e-09


Time = 2.5
TotalLiquidVolume :  sum=1.08192e-10
TotalVolume :  sum=1e-09


Time = 2.6
TotalLiquidVolume :  sum=1.1023e-10
TotalVolume :  sum=1e-09


Time = 2.7
TotalLiquidVolume :  sum=1.12396e-10
TotalVolume :  sum=1e-09


Time = 2.8
TotalLiquidVolume :  sum=1.14584e-10
TotalVolume :  sum=1e-09


Time = 2.9
TotalLiquidVolume :  sum=1.16526e-10
TotalVolume :  sum=1e-09


Time = 3
TotalLiquidVolume :  sum=1.18563e-10
TotalVolume :  sum=1e-09


Time = 3.1
TotalLiquidVolume :  sum=1.20623e-10
TotalVolume :  sum=1e-09


Time = 3.2
TotalLiquidVolume :  sum=1.22536e-10
TotalVolume :  sum=1e-09


Time = 3.3
TotalLiquidVolume :  sum=1.24428e-10
TotalVolume :  sum=1e-09


Time = 3.4
TotalLiquidVolume :  sum=1.26369e-10
TotalVolume :  sum=1e-09


Time = 3.5
TotalLiquidVolume :  sum=1.28325e-10
TotalVolume :  sum=1e-09


Time = 3.6
TotalLiquidVolume :  sum=1.30048e-10
TotalVolume :  sum=1e-09


Time = 3.7
TotalLiquidVolume :  sum=1.31873e-10
TotalVolume :  sum=1e-09


Time = 3.8
TotalLiquidVolume :  sum=1.33719e-10
TotalVolume :  sum=1e-09


Time = 3.9
TotalLiquidVolume :  sum=1.35575e-10
TotalVolume :  sum=1e-09


Time = 4
TotalLiquidVolume :  sum=1.37182e-10
TotalVolume :  sum=1e-09


Time = 4.1
TotalLiquidVolume :  sum=1.38921e-10
TotalVolume :  sum=1e-09


Time = 4.2
TotalLiquidVolume :  sum=1.40675e-10
TotalVolume :  sum=1e-09


Time = 4.3
TotalLiquidVolume :  sum=1.42439e-10
TotalVolume :  sum=1e-09


Time = 4.4
TotalLiquidVolume :  sum=1.43975e-10
TotalVolume :  sum=1e-09


Time = 4.5
TotalLiquidVolume :  sum=1.45625e-10
TotalVolume :  sum=1e-09


Time = 4.6
TotalLiquidVolume :  sum=1.47294e-10
TotalVolume :  sum=1e-09


Time = 4.7
TotalLiquidVolume :  sum=1.48971e-10
TotalVolume :  sum=1e-09


Time = 4.8
TotalLiquidVolume :  sum=1.50489e-10
TotalVolume :  sum=1e-09


Time = 4.9
TotalLiquidVolume :  sum=1.52035e-10
TotalVolume :  sum=1e-09


Time = 5
TotalLiquidVolume :  sum=1.53623e-10
TotalVolume :  sum=1e-09

End

