/*---------------------------------------------------------------------------*\
| =========                 |                                                 |
| \\      /  F ield         | OpenFOAM: The Open Source CFD Toolbox           |
|  \\    /   O peration     | Version:  2.4.0                                 |
|   \\  /    A nd           | Web:      www.OpenFOAM.org                      |
|    \\/     M anipulation  |                                                 |
\*---------------------------------------------------------------------------*/
Build  : 2.4.0-dcea1e13ff76
Exec   : funkyDoCalc LiquidFractionCalc -time 0:100
Date   : Sep 03 2015
Time   : 11:41:26
Host   : "MNE-ALRA12-L"
PID    : 26058
Case   : /home/arattnerlab/WorkingFOAM/CFD-PC/interThermalPhaseFoam/tutorials/Stefan
nProcs : 1
sigFpe : Enabling floating point exception trapping (FOAM_SIGFPE).
fileModificationChecking : Monitoring run-time modified files using timeStampMaster
allowSystemOperations : Allowing user-supplied system call operations

// * * * * * * * * * * * * * * * * * * * * * * * * * * * * * * * * * * * * * //
swakVersion: 0.3.2 (Release date: 2015-05-31)
// * * * * * * * * * * * * * * * * * * * * * * * * * * * * * * * * * * * * * //
Create time

--> FOAM Warning : 
    From function dlOpen(const fileName&, const bool)
    in file POSIX.C at line 1179
    dlopen error : /home/arattnerlab/OpenFOAM/OpenFOAM-2.4.0/platforms/linux64GccDPOpt/lib/libinterfaceProperties.so: undefined symbol: _ZTIN4Foam35alphaContactAngleFvPatchScalarFieldE
--> FOAM Warning : 
    From function dlLibraryTable::open(const fileName&, const bool)
    in file db/dynamicLibrary/dlLibraryTable/dlLibraryTable.C at line 99
    could not load "libinterfaceProperties.so"
Create mesh for time = 0

No information about foreign meshes in "LiquidFractionCalc.TotalLiquidVolume"

No information about foreign meshes in "LiquidFractionCalc.TotalVolume"


Time = 0
TotalLiquidVolume : swak4Foam: Setting default mesh
swak4Foam: Allocating new repository for sampledMeshes
swak4Foam: Allocating new repository for sampledGlobalVariables
 sum=0
TotalVolume :  sum=1e-09


Time = 0.1
TotalLiquidVolume :  sum=2.00605e-11
TotalVolume :  sum=1e-09


Time = 0.2
TotalLiquidVolume :  sum=2.57626e-11
TotalVolume :  sum=1e-09


Time = 0.3
TotalLiquidVolume :  sum=3.26032e-11
TotalVolume :  sum=1e-09


Time = 0.4
TotalLiquidVolume :  sum=3.99475e-11
TotalVolume :  sum=1e-09


Time = 0.5
TotalLiquidVolume :  sum=4.35886e-11
TotalVolume :  sum=1e-09


Time = 0.6
TotalLiquidVolume :  sum=4.77478e-11
TotalVolume :  sum=1e-09


Time = 0.7
TotalLiquidVolume :  sum=5.21703e-11
TotalVolume :  sum=1e-09


Time = 0.8
TotalLiquidVolume :  sum=5.68253e-11
TotalVolume :  sum=1e-09


Time = 0.9
TotalLiquidVolume :  sum=6.06191e-11
TotalVolume :  sum=1e-09


Time = 1
TotalLiquidVolume :  sum=6.35546e-11
TotalVolume :  sum=1e-09


Time = 1.1
TotalLiquidVolume :  sum=6.66505e-11
TotalVolume :  sum=1e-09


Time = 1.2
TotalLiquidVolume :  sum=6.98579e-11
TotalVolume :  sum=1e-09


Time = 1.3
TotalLiquidVolume :  sum=7.31623e-11
TotalVolume :  sum=1e-09


Time = 1.4
TotalLiquidVolume :  sum=7.65542e-11
TotalVolume :  sum=1e-09


Time = 1.5
TotalLiquidVolume :  sum=7.99384e-11
TotalVolume :  sum=1e-09


Time = 1.6
TotalLiquidVolume :  sum=8.19729e-11
TotalVolume :  sum=1e-09


Time = 1.7
TotalLiquidVolume :  sum=8.44024e-11
TotalVolume :  sum=1e-09


Time = 1.8
TotalLiquidVolume :  sum=8.68953e-11
TotalVolume :  sum=1e-09


Time = 1.9
TotalLiquidVolume :  sum=8.94424e-11
TotalVolume :  sum=1e-09


Time = 2
TotalLiquidVolume :  sum=9.20379e-11
TotalVolume :  sum=1e-09


Time = 2.1
TotalLiquidVolume :  sum=9.46771e-11
TotalVolume :  sum=1e-09


Time = 2.2
TotalLiquidVolume :  sum=9.73564e-11
TotalVolume :  sum=1e-09


Time = 2.3
TotalLiquidVolume :  sum=9.99736e-11
TotalVolume :  sum=1e-09


Time = 2.4
TotalLiquidVolume :  sum=1.01623e-10
TotalVolume :  sum=1e-09


Time = 2.5
TotalLiquidVolume :  sum=1.03646e-10
TotalVolume :  sum=1e-09


Time = 2.6
TotalLiquidVolume :  sum=1.05708e-10
TotalVolume :  sum=1e-09


Time = 2.7
TotalLiquidVolume :  sum=1.07802e-10
TotalVolume :  sum=1e-09


Time = 2.8
TotalLiquidVolume :  sum=1.09924e-10
TotalVolume :  sum=1e-09


Time = 2.9
TotalLiquidVolume :  sum=1.12074e-10
TotalVolume :  sum=1e-09


Time = 3
TotalLiquidVolume :  sum=1.14247e-10
TotalVolume :  sum=1e-09


Time = 3.1
TotalLiquidVolume :  sum=1.16443e-10
TotalVolume :  sum=1e-09


Time = 3.2
TotalLiquidVolume :  sum=1.1866e-10
TotalVolume :  sum=1e-09


Time = 3.3
TotalLiquidVolume :  sum=1.20351e-10
TotalVolume :  sum=1e-09


Time = 3.4
TotalLiquidVolume :  sum=1.21979e-10
TotalVolume :  sum=1e-09


Time = 3.5
TotalLiquidVolume :  sum=1.23725e-10
TotalVolume :  sum=1e-09


Time = 3.6
TotalLiquidVolume :  sum=1.25494e-10
TotalVolume :  sum=1e-09


Time = 3.7
TotalLiquidVolume :  sum=1.27282e-10
TotalVolume :  sum=1e-09


Time = 3.8
TotalLiquidVolume :  sum=1.29088e-10
TotalVolume :  sum=1e-09


Time = 3.9
TotalLiquidVolume :  sum=1.30912e-10
TotalVolume :  sum=1e-09


Time = 4
TotalLiquidVolume :  sum=1.3275e-10
TotalVolume :  sum=1e-09


Time = 4.1
TotalLiquidVolume :  sum=1.34603e-10
TotalVolume :  sum=1e-09


Time = 4.2
TotalLiquidVolume :  sum=1.36469e-10
TotalVolume :  sum=1e-09


Time = 4.3
TotalLiquidVolume :  sum=1.38348e-10
TotalVolume :  sum=1e-09


Time = 4.4
TotalLiquidVolume :  sum=1.40046e-10
TotalVolume :  sum=1e-09


Time = 4.5
TotalLiquidVolume :  sum=1.41278e-10
TotalVolume :  sum=1e-09


Time = 4.6
TotalLiquidVolume :  sum=1.42791e-10
TotalVolume :  sum=1e-09


Time = 4.7
TotalLiquidVolume :  sum=1.4433e-10
TotalVolume :  sum=1e-09


Time = 4.8
TotalLiquidVolume :  sum=1.45883e-10
TotalVolume :  sum=1e-09


Time = 4.9
TotalLiquidVolume :  sum=1.47449e-10
TotalVolume :  sum=1e-09


Time = 5
TotalLiquidVolume :  sum=1.49027e-10
TotalVolume :  sum=1e-09

End

