/*---------------------------------------------------------------------------*\
| =========                 |                                                 |
| \\      /  F ield         | OpenFOAM: The Open Source CFD Toolbox           |
|  \\    /   O peration     | Version:  2.4.0                                 |
|   \\  /    A nd           | Web:      www.OpenFOAM.org                      |
|    \\/     M anipulation  |                                                 |
\*---------------------------------------------------------------------------*/
Build  : 2.4.0-dcea1e13ff76
Exec   : funkyDoCalc WallHeatFluxCalc -time 0:100
Date   : Sep 03 2015
Time   : 11:43:30
Host   : "MNE-ALRA12-L"
PID    : 26072
Case   : /home/arattnerlab/WorkingFOAM/CFD-PC/interThermalPhaseFoam/tutorials/Stefan
nProcs : 1
sigFpe : Enabling floating point exception trapping (FOAM_SIGFPE).
fileModificationChecking : Monitoring run-time modified files using timeStampMaster
allowSystemOperations : Allowing user-supplied system call operations

// * * * * * * * * * * * * * * * * * * * * * * * * * * * * * * * * * * * * * //
swakVersion: 0.3.2 (Release date: 2015-05-31)
// * * * * * * * * * * * * * * * * * * * * * * * * * * * * * * * * * * * * * //
Create time

--> FOAM Warning : 
    From function dlOpen(const fileName&, const bool)
    in file POSIX.C at line 1179
    dlopen error : /home/arattnerlab/OpenFOAM/OpenFOAM-2.4.0/platforms/linux64GccDPOpt/lib/libinterfaceProperties.so: undefined symbol: _ZTIN4Foam35alphaContactAngleFvPatchScalarFieldE
--> FOAM Warning : 
    From function dlLibraryTable::open(const fileName&, const bool)
    in file db/dynamicLibrary/dlLibraryTable/dlLibraryTable.C at line 99
    could not load "libinterfaceProperties.so"
Create mesh for time = 0

No information about foreign meshes in "WallHeatFluxCalc.WallHeatFlux"


Time = 0
WallHeatFlux : swak4Foam: Setting default mesh
swak4Foam: Allocating new repository for sampledGlobalVariables
 average=-44600


Time = 0.1
WallHeatFlux :  average=-10302.6


Time = 0.2
WallHeatFlux :  average=-11403.3


Time = 0.3
WallHeatFlux :  average=-13096.3


Time = 0.4
WallHeatFlux :  average=-11226.7


Time = 0.5
WallHeatFlux :  average=-7182.38


Time = 0.6
WallHeatFlux :  average=-7733.64


Time = 0.7
WallHeatFlux :  average=-8188.56


Time = 0.8
WallHeatFlux :  average=-8591.74


Time = 0.9
WallHeatFlux :  average=-5057.64


Time = 1
WallHeatFlux :  average=-5414.44


Time = 1.1
WallHeatFlux :  average=-5660.63


Time = 1.2
WallHeatFlux :  average=-5856.87


Time = 1.3
WallHeatFlux :  average=-6031.7


Time = 1.4
WallHeatFlux :  average=-6185.13


Time = 1.5
WallHeatFlux :  average=-6270.76


Time = 1.6
WallHeatFlux :  average=-4204.89


Time = 1.7
WallHeatFlux :  average=-4397.56


Time = 1.8
WallHeatFlux :  average=-4520.66


Time = 1.9
WallHeatFlux :  average=-4620.56


Time = 2
WallHeatFlux :  average=-4709.76


Time = 2.1
WallHeatFlux :  average=-4786.47


Time = 2.2
WallHeatFlux :  average=-4861.4


Time = 2.3
WallHeatFlux :  average=-4902.43


Time = 2.4
WallHeatFlux :  average=-3514.48


Time = 2.5
WallHeatFlux :  average=-3635.79


Time = 2.6
WallHeatFlux :  average=-3719.64


Time = 2.7
WallHeatFlux :  average=-3782.08


Time = 2.8
WallHeatFlux :  average=-3835.6


Time = 2.9
WallHeatFlux :  average=-3885.55


Time = 3
WallHeatFlux :  average=-3930.15


Time = 3.1
WallHeatFlux :  average=-3969.4


Time = 3.2
WallHeatFlux :  average=-4010.43


Time = 3.3
WallHeatFlux :  average=-3485.94


Time = 3.4
WallHeatFlux :  average=-3050.64


Time = 3.5
WallHeatFlux :  average=-3122


Time = 3.6
WallHeatFlux :  average=-3175.52


Time = 3.7
WallHeatFlux :  average=-3220.12


Time = 3.8
WallHeatFlux :  average=-3255.8


Time = 3.9
WallHeatFlux :  average=-3287.91


Time = 4
WallHeatFlux :  average=-3318.24


Time = 4.1
WallHeatFlux :  average=-3345


Time = 4.2
WallHeatFlux :  average=-3371.76


Time = 4.3
WallHeatFlux :  average=-3393.17


Time = 4.4
WallHeatFlux :  average=-3396.74


Time = 4.5
WallHeatFlux :  average=-2711.68


Time = 4.6
WallHeatFlux :  average=-2711.68


Time = 4.7
WallHeatFlux :  average=-2752.71


Time = 4.8
WallHeatFlux :  average=-2783.04


Time = 4.9
WallHeatFlux :  average=-2809.8


Time = 5
WallHeatFlux :  average=-2836.56

End

