/*---------------------------------------------------------------------------*\
| =========                 |                                                 |
| \\      /  F ield         | OpenFOAM: The Open Source CFD Toolbox           |
|  \\    /   O peration     | Version:  2.4.0                                 |
|   \\  /    A nd           | Web:      www.OpenFOAM.org                      |
|    \\/     M anipulation  |                                                 |
\*---------------------------------------------------------------------------*/
Build  : 2.4.0-dcea1e13ff76
Exec   : interThermalPhaseChangeFoam
Date   : Dec 02 2015
Time   : 16:21:40
Host   : "MTFE-Workstation-01"
PID    : 22814
Case   : /home/mtfe/softwareXAutomation/CFD-PC/interThermalPhaseFoam/tutorials/Stefan
nProcs : 1
sigFpe : Enabling floating point exception trapping (FOAM_SIGFPE).
fileModificationChecking : Monitoring run-time modified files using timeStampMaster
allowSystemOperations : Allowing user-supplied system call operations

// * * * * * * * * * * * * * * * * * * * * * * * * * * * * * * * * * * * * * //
Create time

Create mesh for time = 0.006


PIMPLE: Operating solver in PISO mode

Reading field p_rgh

Reading field alpha1

Reading field U

Reading/calculating face flux field phi

Reading field T

Reading transportProperties

Selecting incompressible transport model Newtonian
Selecting incompressible transport model Newtonian
Selecting incompressible thermal transport model Fourier
Selecting incompressible thermal transport model Fourier
Selecting turbulence model type laminar
Selecting phase change model: HiLoFacePair
Selecting surface tension force model: Brackbill

Reading g
Calculating field g.h

No finite volume options present

time step continuity errors : sum local = 2.50551e-05, global = -2.5051e-05, cumulative = -2.5051e-05
GAMGPCG:  Solving for pcorr, Initial residual = 1, Final residual = 1.60511e-08, No Iterations 5
GAMGPCG:  Solving for pcorr, Initial residual = 3.71778e-11, Final residual = 3.71778e-11, No Iterations 0
time step continuity errors : sum local = 4.02149e-13, global = -4.47084e-14, cumulative = -2.5051e-05
Courant Number mean: 1.13508e-06 max: 4.09301e-06
Minimum cell dimension: 1.83042e-06

Starting time loop

Using dynamicCode for functionObject VolumeLiquid at line 64 in ".VolumeLiquid"
Courant Number mean: 1.13508e-06 max: 4.09301e-06
Interface Courant Number mean: 3.7053e-10 max: 4.67642e-07
Fourier number mean: 0.10113 max: 0.249941
deltaT = 8.40336e-07
Time = 0.00600084

MULES: Solving for alpha1
Liquid phase volume fraction = 0.00491252  Min(alpha1) = 0  Max(alpha1) = 1
MULES: Solving for alpha1
Liquid phase volume fraction = 0.00491266  Min(alpha1) = 0  Max(alpha1) = 1
MULES: Solving for alpha1
Liquid phase volume fraction = 0.0049128  Min(alpha1) = 0  Max(alpha1) = 1
PIMPLE: iteration 1
GAMG:  Solving for p_rgh, Initial residual = 0.171167, Final residual = 0.000141664, No Iterations 1
GAMG:  Solving for p_rgh, Initial residual = 0.000116693, Final residual = 6.70902e-06, No Iterations 2
time step continuity errors : sum local = 2.5066e-05, global = -2.50646e-05, cumulative = -5.01156e-05
GAMG:  Solving for p_rgh, Initial residual = 0.00857288, Final residual = 9.40522e-06, No Iterations 1
GAMGPCG:  Solving for p_rgh, Initial residual = 9.42843e-06, Final residual = 4.52366e-09, No Iterations 2
time step continuity errors : sum local = 2.50653e-05, global = -2.50653e-05, cumulative = -7.51809e-05
****
****Pressure range: 4.70359 Pa
****Max velocity: 0.0389464 m/s
****Phase change energy: -0.0911057 W
****Volume change: -2.98277e-08 m^3/s
DILUPBiCG:  Solving for H, Initial residual = 4.21122e-05, Final residual = 6.77726e-12, No Iterations 1
DILUPBiCG:  Solving for H, Initial residual = 1.07641e-06, Final residual = 1.48058e-13, No Iterations 1
DILUPBiCG:  Solving for H, Initial residual = 5.29477e-07, Final residual = 8.15151e-14, No Iterations 1
ExecutionTime = 0.12 s  ClockTime = 0 s

Courant Number mean: 0.00745701 max: 0.0136532
Interface Courant Number mean: 1.25327e-05 max: 0.00685177
Fourier number mean: 0.10113 max: 0.249941
deltaT = 8.40336e-07
Time = 0.00600168

MULES: Solving for alpha1
Liquid phase volume fraction = 0.00491294  Min(alpha1) = 0  Max(alpha1) = 1
MULES: Solving for alpha1
Liquid phase volume fraction = 0.00491308  Min(alpha1) = 0  Max(alpha1) = 1
MULES: Solving for alpha1
Liquid phase volume fraction = 0.00491323  Min(alpha1) = 0  Max(alpha1) = 1
PIMPLE: iteration 1
GAMG:  Solving for p_rgh, Initial residual = 0.174174, Final residual = 0.000266482, No Iterations 1
GAMG:  Solving for p_rgh, Initial residual = 0.000335374, Final residual = 2.32097e-05, No Iterations 2
time step continuity errors : sum local = 2.50474e-05, global = -2.50474e-05, cumulative = -0.000100228
GAMG:  Solving for p_rgh, Initial residual = 0.00811343, Final residual = 1.33868e-05, No Iterations 1
GAMGPCG:  Solving for p_rgh, Initial residual = 1.33855e-05, Final residual = 6.46632e-09, No Iterations 2
time step continuity errors : sum local = 2.50457e-05, global = -2.50457e-05, cumulative = -0.000125274
****
****Pressure range: 4.65177 Pa
****Max velocity: 0.0406562 m/s
****Phase change energy: -0.0910347 W
****Volume change: -2.98044e-08 m^3/s
DILUPBiCG:  Solving for H, Initial residual = 2.05904e-05, Final residual = 4.75579e-12, No Iterations 1
DILUPBiCG:  Solving for H, Initial residual = 2.68957e-07, Final residual = 2.6367e-14, No Iterations 1
DILUPBiCG:  Solving for H, Initial residual = 8.51162e-08, Final residual = 1.3986e-14, No Iterations 1
ExecutionTime = 0.15 s  ClockTime = 0 s

Courant Number mean: 0.00745113 max: 0.013556
Interface Courant Number mean: 1.25229e-05 max: 0.00680292
Fourier number mean: 0.10113 max: 0.249941
deltaT = 8.40336e-07
Time = 0.00600252

MULES: Solving for alpha1
Liquid phase volume fraction = 0.00491337  Min(alpha1) = 0  Max(alpha1) = 1
MULES: Solving for alpha1
Liquid phase volume fraction = 0.00491351  Min(alpha1) = 0  Max(alpha1) = 1
MULES: Solving for alpha1
Liquid phase volume fraction = 0.00491365  Min(alpha1) = 0  Max(alpha1) = 1
PIMPLE: iteration 1
GAMG:  Solving for p_rgh, Initial residual = 0.0159663, Final residual = 0.000176062, No Iterations 1
GAMG:  Solving for p_rgh, Initial residual = 0.000194407, Final residual = 1.70208e-05, No Iterations 2
time step continuity errors : sum local = 2.50539e-05, global = -2.50516e-05, cumulative = -0.000150326
GAMG:  Solving for p_rgh, Initial residual = 0.00261612, Final residual = 3.30929e-06, No Iterations 1
GAMGPCG:  Solving for p_rgh, Initial residual = 3.30249e-06, Final residual = 1.07556e-09, No Iterations 2
time step continuity errors : sum local = 2.50528e-05, global = -2.50528e-05, cumulative = -0.000175378
****
****Pressure range: 2.67568 Pa
****Max velocity: 0.041455 m/s
****Phase change energy: -0.0910602 W
****Volume change: -2.98128e-08 m^3/s
DILUPBiCG:  Solving for H, Initial residual = 1.89758e-05, Final residual = 3.14054e-12, No Iterations 1
DILUPBiCG:  Solving for H, Initial residual = 2.13639e-07, Final residual = 1.64958e-14, No Iterations 1
DILUPBiCG:  Solving for H, Initial residual = 5.4669e-08, Final residual = 8.58216e-15, No Iterations 1
ExecutionTime = 0.17 s  ClockTime = 0 s

Courant Number mean: 0.00745321 max: 0.0135595
Interface Courant Number mean: 1.25264e-05 max: 0.0068047
Fourier number mean: 0.10113 max: 0.249941
deltaT = 8.40336e-07
Time = 0.00600336

MULES: Solving for alpha1
Liquid phase volume fraction = 0.00491379  Min(alpha1) = 0  Max(alpha1) = 1
MULES: Solving for alpha1
Liquid phase volume fraction = 0.00491393  Min(alpha1) = 0  Max(alpha1) = 1
MULES: Solving for alpha1
Liquid phase volume fraction = 0.00491407  Min(alpha1) = 0  Max(alpha1) = 1
PIMPLE: iteration 1
GAMG:  Solving for p_rgh, Initial residual = 0.00615049, Final residual = 3.3247e-05, No Iterations 1
GAMG:  Solving for p_rgh, Initial residual = 3.38345e-05, Final residual = 3.30411e-06, No Iterations 2
time step continuity errors : sum local = 2.50543e-05, global = -2.50543e-05, cumulative = -0.000200433
GAMG:  Solving for p_rgh, Initial residual = 0.00118155, Final residual = 2.06465e-06, No Iterations 1
GAMGPCG:  Solving for p_rgh, Initial residual = 2.06564e-06, Final residual = 1.65913e-10, No Iterations 2
time step continuity errors : sum local = 2.50541e-05, global = -2.50541e-05, cumulative = -0.000225487
****
****Pressure range: 2.45809 Pa
****Max velocity: 0.0417947 m/s
****Phase change energy: -0.091065 W
****Volume change: -2.98143e-08 m^3/s
DILUPBiCG:  Solving for H, Initial residual = 1.76983e-05, Final residual = 2.22353e-12, No Iterations 1
DILUPBiCG:  Solving for H, Initial residual = 1.74857e-07, Final residual = 1.01566e-14, No Iterations 1
DILUPBiCG:  Solving for H, Initial residual = 3.33158e-08, Final residual = 5.04336e-15, No Iterations 1
ExecutionTime = 0.19 s  ClockTime = 0 s

Courant Number mean: 0.0074536 max: 0.0135601
Interface Courant Number mean: 1.2527e-05 max: 0.006805
Fourier number mean: 0.10113 max: 0.249941
deltaT = 8.40336e-07
Time = 0.0060042

MULES: Solving for alpha1
Liquid phase volume fraction = 0.00491421  Min(alpha1) = 0  Max(alpha1) = 1
MULES: Solving for alpha1
Liquid phase volume fraction = 0.00491435  Min(alpha1) = 0  Max(alpha1) = 1
MULES: Solving for alpha1
Liquid phase volume fraction = 0.00491449  Min(alpha1) = 0  Max(alpha1) = 1
PIMPLE: iteration 1
GAMG:  Solving for p_rgh, Initial residual = 0.00292748, Final residual = 5.2032e-06, No Iterations 1
GAMG:  Solving for p_rgh, Initial residual = 5.19264e-06, Final residual = 3.20786e-07, No Iterations 1
time step continuity errors : sum local = 2.50554e-05, global = -2.50553e-05, cumulative = -0.000250542
GAMG:  Solving for p_rgh, Initial residual = 0.000609194, Final residual = 6.09073e-07, No Iterations 1
GAMGPCG:  Solving for p_rgh, Initial residual = 6.09009e-07, Final residual = 1.09301e-10, No Iterations 2
time step continuity errors : sum local = 2.50554e-05, global = -2.50553e-05, cumulative = -0.000275597
****
****Pressure range: 2.39637 Pa
****Max velocity: 0.0419411 m/s
****Phase change energy: -0.0910696 W
****Volume change: -2.98159e-08 m^3/s
DILUPBiCG:  Solving for H, Initial residual = 1.68729e-05, Final residual = 1.67332e-12, No Iterations 1
DILUPBiCG:  Solving for H, Initial residual = 1.54229e-07, Final residual = 6.49533e-15, No Iterations 1
DILUPBiCG:  Solving for H, Initial residual = 2.17568e-08, Final residual = 3.07761e-15, No Iterations 1
ExecutionTime = 0.21 s  ClockTime = 0 s

Courant Number mean: 0.00745398 max: 0.0135607
Interface Courant Number mean: 1.25277e-05 max: 0.00680533
Fourier number mean: 0.10113 max: 0.249941
deltaT = 8.40336e-07
Time = 0.00600504

MULES: Solving for alpha1
Liquid phase volume fraction = 0.00491463  Min(alpha1) = 0  Max(alpha1) = 1
MULES: Solving for alpha1
Liquid phase volume fraction = 0.00491477  Min(alpha1) = 0  Max(alpha1) = 1
MULES: Solving for alpha1
Liquid phase volume fraction = 0.00491491  Min(alpha1) = 0  Max(alpha1) = 1
PIMPLE: iteration 1
GAMG:  Solving for p_rgh, Initial residual = 0.00153202, Final residual = 2.38022e-06, No Iterations 1
GAMG:  Solving for p_rgh, Initial residual = 2.37717e-06, Final residual = 9.24046e-08, No Iterations 2
time step continuity errors : sum local = 2.50566e-05, global = -2.50566e-05, cumulative = -0.000300654
GAMG:  Solving for p_rgh, Initial residual = 0.000373743, Final residual = 6.84858e-07, No Iterations 1
GAMGPCG:  Solving for p_rgh, Initial residual = 6.84959e-07, Final residual = 5.91298e-11, No Iterations 2
time step continuity errors : sum local = 2.50566e-05, global = -2.50566e-05, cumulative = -0.000325711
****
****Pressure range: 2.38215 Pa
****Max velocity: 0.0420051 m/s
****Phase change energy: -0.0910742 W
****Volume change: -2.98174e-08 m^3/s
DILUPBiCG:  Solving for H, Initial residual = 1.63308e-05, Final residual = 1.3377e-12, No Iterations 1
DILUPBiCG:  Solving for H, Initial residual = 1.42381e-07, Final residual = 4.2839e-15, No Iterations 1
DILUPBiCG:  Solving for H, Initial residual = 1.52814e-08, Final residual = 1.95568e-15, No Iterations 1
ExecutionTime = 0.23 s  ClockTime = 0 s

Courant Number mean: 0.00745435 max: 0.0135614
Interface Courant Number mean: 1.25283e-05 max: 0.00680567
Fourier number mean: 0.10113 max: 0.249941
deltaT = 8.40336e-07
Time = 0.00600588

MULES: Solving for alpha1
Liquid phase volume fraction = 0.00491505  Min(alpha1) = 0  Max(alpha1) = 1
MULES: Solving for alpha1
Liquid phase volume fraction = 0.00491519  Min(alpha1) = 0  Max(alpha1) = 1
MULES: Solving for alpha1
Liquid phase volume fraction = 0.00491534  Min(alpha1) = 0  Max(alpha1) = 1
PIMPLE: iteration 1
GAMG:  Solving for p_rgh, Initial residual = 0.000859565, Final residual = 1.16857e-06, No Iterations 1
GAMG:  Solving for p_rgh, Initial residual = 1.1674e-06, Final residual = 8.93431e-08, No Iterations 2
time step continuity errors : sum local = 2.50579e-05, global = -2.50579e-05, cumulative = -0.000350768
GAMG:  Solving for p_rgh, Initial residual = 0.000236126, Final residual = 6.87067e-07, No Iterations 1
GAMGPCG:  Solving for p_rgh, Initial residual = 6.8726e-07, Final residual = 4.83997e-11, No Iterations 2
time step continuity errors : sum local = 2.50579e-05, global = -2.50579e-05, cumulative = -0.000375826
****
****Pressure range: 2.37524 Pa
****Max velocity: 0.0420343 m/s
****Phase change energy: -0.0910788 W
****Volume change: -2.98189e-08 m^3/s
DILUPBiCG:  Solving for H, Initial residual = 1.59796e-05, Final residual = 1.14031e-12, No Iterations 1
DILUPBiCG:  Solving for H, Initial residual = 1.35394e-07, Final residual = 2.8882e-15, No Iterations 1
DILUPBiCG:  Solving for H, Initial residual = 1.15384e-08, Final residual = 1.28676e-15, No Iterations 1
ExecutionTime = 0.26 s  ClockTime = 0 s

Courant Number mean: 0.00745473 max: 0.0135621
Interface Courant Number mean: 1.25289e-05 max: 0.00680603
Fourier number mean: 0.10113 max: 0.249941
deltaT = 8.40336e-07
Time = 0.00600672

MULES: Solving for alpha1
Liquid phase volume fraction = 0.00491548  Min(alpha1) = 0  Max(alpha1) = 1
MULES: Solving for alpha1
Liquid phase volume fraction = 0.00491562  Min(alpha1) = 0  Max(alpha1) = 1
MULES: Solving for alpha1
Liquid phase volume fraction = 0.00491576  Min(alpha1) = 0  Max(alpha1) = 1
PIMPLE: iteration 1
GAMG:  Solving for p_rgh, Initial residual = 0.000526648, Final residual = 7.32309e-07, No Iterations 1
GAMG:  Solving for p_rgh, Initial residual = 7.31742e-07, Final residual = 7.07367e-08, No Iterations 2
time step continuity errors : sum local = 2.50592e-05, global = -2.50591e-05, cumulative = -0.000400885
GAMG:  Solving for p_rgh, Initial residual = 0.000153105, Final residual = 6.79377e-07, No Iterations 1
GAMGPCG:  Solving for p_rgh, Initial residual = 6.79623e-07, Final residual = 4.13732e-11, No Iterations 2
time step continuity errors : sum local = 2.50591e-05, global = -2.50591e-05, cumulative = -0.000425945
****
****Pressure range: 2.37316 Pa
****Max velocity: 0.0420488 m/s
****Phase change energy: -0.0910834 W
****Volume change: -2.98204e-08 m^3/s
DILUPBiCG:  Solving for H, Initial residual = 1.57601e-05, Final residual = 1.02781e-12, No Iterations 1
DILUPBiCG:  Solving for H, Initial residual = 1.32974e-07, Final residual = 2.71676e-15, No Iterations 1
DILUPBiCG:  Solving for H, Initial residual = 1.06829e-08, Final residual = 1.11393e-15, No Iterations 1
ExecutionTime = 0.27 s  ClockTime = 0 s

Courant Number mean: 0.00745511 max: 0.0135629
Interface Courant Number mean: 1.25296e-05 max: 0.0068064
Fourier number mean: 0.10113 max: 0.249941
deltaT = 8.40336e-07
Time = 0.00600756

MULES: Solving for alpha1
Liquid phase volume fraction = 0.0049159  Min(alpha1) = 0  Max(alpha1) = 1
MULES: Solving for alpha1
Liquid phase volume fraction = 0.00491604  Min(alpha1) = 0  Max(alpha1) = 1
MULES: Solving for alpha1
Liquid phase volume fraction = 0.00491618  Min(alpha1) = 0  Max(alpha1) = 1
PIMPLE: iteration 1
GAMG:  Solving for p_rgh, Initial residual = 0.000354656, Final residual = 5.9586e-07, No Iterations 1
GAMG:  Solving for p_rgh, Initial residual = 5.95473e-07, Final residual = 1.86216e-08, No Iterations 3
time step continuity errors : sum local = 2.50604e-05, global = -2.50604e-05, cumulative = -0.000451005
GAMG:  Solving for p_rgh, Initial residual = 0.000101796, Final residual = 6.79854e-07, No Iterations 1
GAMGPCG:  Solving for p_rgh, Initial residual = 6.80137e-07, Final residual = 3.69886e-11, No Iterations 2
time step continuity errors : sum local = 2.50604e-05, global = -2.50604e-05, cumulative = -0.000476065
****
****Pressure range: 2.37225 Pa
****Max velocity: 0.0420572 m/s
****Phase change energy: -0.091088 W
****Volume change: -2.98219e-08 m^3/s
DILUPBiCG:  Solving for H, Initial residual = 1.56228e-05, Final residual = 9.64028e-13, No Iterations 1
DILUPBiCG:  Solving for H, Initial residual = 1.32372e-07, Final residual = 2.80125e-15, No Iterations 1
DILUPBiCG:  Solving for H, Initial residual = 1.04086e-08, Final residual = 1.0666e-15, No Iterations 1
ExecutionTime = 0.29 s  ClockTime = 0 s

Courant Number mean: 0.00745548 max: 0.0135635
Interface Courant Number mean: 1.25302e-05 max: 0.00680674
Fourier number mean: 0.10113 max: 0.249941
deltaT = 8.40336e-07
Time = 0.0060084

MULES: Solving for alpha1
Liquid phase volume fraction = 0.00491632  Min(alpha1) = 0  Max(alpha1) = 1
MULES: Solving for alpha1
Liquid phase volume fraction = 0.00491646  Min(alpha1) = 0  Max(alpha1) = 1
MULES: Solving for alpha1
Liquid phase volume fraction = 0.0049166  Min(alpha1) = 0  Max(alpha1) = 1
PIMPLE: iteration 1
GAMG:  Solving for p_rgh, Initial residual = 0.000262814, Final residual = 6.41959e-07, No Iterations 1
GAMG:  Solving for p_rgh, Initial residual = 6.41534e-07, Final residual = 2.04867e-08, No Iterations 3
time step continuity errors : sum local = 2.50616e-05, global = -2.50616e-05, cumulative = -0.000501127
GAMG:  Solving for p_rgh, Initial residual = 6.94491e-05, Final residual = 6.71196e-07, No Iterations 1
GAMGPCG:  Solving for p_rgh, Initial residual = 6.71494e-07, Final residual = 3.54081e-11, No Iterations 2
time step continuity errors : sum local = 2.50616e-05, global = -2.50616e-05, cumulative = -0.000526189
****
****Pressure range: 2.37199 Pa
****Max velocity: 0.0420629 m/s
****Phase change energy: -0.0910925 W
****Volume change: -2.98233e-08 m^3/s
DILUPBiCG:  Solving for H, Initial residual = 1.55358e-05, Final residual = 9.24424e-13, No Iterations 1
DILUPBiCG:  Solving for H, Initial residual = 1.32134e-07, Final residual = 2.89065e-15, No Iterations 1
DILUPBiCG:  Solving for H, Initial residual = 1.03297e-08, Final residual = 1.05603e-15, No Iterations 1
ExecutionTime = 0.32 s  ClockTime = 0 s

Courant Number mean: 0.00745585 max: 0.0135642
Interface Courant Number mean: 1.25308e-05 max: 0.00680708
Fourier number mean: 0.10113 max: 0.249941
deltaT = 8.40336e-07
Time = 0.00600924

MULES: Solving for alpha1
Liquid phase volume fraction = 0.00491674  Min(alpha1) = 0  Max(alpha1) = 1
MULES: Solving for alpha1
Liquid phase volume fraction = 0.00491688  Min(alpha1) = 0  Max(alpha1) = 1
MULES: Solving for alpha1
Liquid phase volume fraction = 0.00491702  Min(alpha1) = 0  Max(alpha1) = 1
PIMPLE: iteration 1
GAMG:  Solving for p_rgh, Initial residual = 0.000211743, Final residual = 6.95602e-07, No Iterations 1
GAMG:  Solving for p_rgh, Initial residual = 6.95128e-07, Final residual = 2.20511e-08, No Iterations 3
time step continuity errors : sum local = 2.50629e-05, global = -2.50629e-05, cumulative = -0.000551252
GAMG:  Solving for p_rgh, Initial residual = 4.85425e-05, Final residual = 6.69965e-07, No Iterations 1
GAMGPCG:  Solving for p_rgh, Initial residual = 6.70277e-07, Final residual = 3.48311e-11, No Iterations 2
time step continuity errors : sum local = 2.50629e-05, global = -2.50629e-05, cumulative = -0.000576314
****
****Pressure range: 2.37208 Pa
****Max velocity: 0.0420676 m/s
****Phase change energy: -0.091097 W
****Volume change: -2.98248e-08 m^3/s
DILUPBiCG:  Solving for H, Initial residual = 1.54746e-05, Final residual = 8.95979e-13, No Iterations 1
DILUPBiCG:  Solving for H, Initial residual = 1.32073e-07, Final residual = 2.96909e-15, No Iterations 1
DILUPBiCG:  Solving for H, Initial residual = 1.03445e-08, Final residual = 1.0577e-15, No Iterations 1
ExecutionTime = 0.34 s  ClockTime = 0 s

Courant Number mean: 0.00745622 max: 0.0135649
Interface Courant Number mean: 1.25314e-05 max: 0.00680743
Fourier number mean: 0.10113 max: 0.249941
deltaT = 8.40336e-07
Time = 0.00601008

MULES: Solving for alpha1
Liquid phase volume fraction = 0.00491716  Min(alpha1) = 0  Max(alpha1) = 1
MULES: Solving for alpha1
Liquid phase volume fraction = 0.00491731  Min(alpha1) = 0  Max(alpha1) = 1
MULES: Solving for alpha1
Liquid phase volume fraction = 0.00491745  Min(alpha1) = 0  Max(alpha1) = 1
PIMPLE: iteration 1
GAMG:  Solving for p_rgh, Initial residual = 0.000182382, Final residual = 7.18693e-07, No Iterations 1
GAMG:  Solving for p_rgh, Initial residual = 7.18202e-07, Final residual = 2.27466e-08, No Iterations 3
time step continuity errors : sum local = 2.50641e-05, global = -2.50641e-05, cumulative = -0.000601379
GAMG:  Solving for p_rgh, Initial residual = 3.47191e-05, Final residual = 6.71551e-07, No Iterations 1
GAMGPCG:  Solving for p_rgh, Initial residual = 6.71873e-07, Final residual = 3.471e-11, No Iterations 2
time step continuity errors : sum local = 2.50641e-05, global = -2.50641e-05, cumulative = -0.000626443
****
****Pressure range: 2.37235 Pa
****Max velocity: 0.0420719 m/s
****Phase change energy: -0.0911015 W
****Volume change: -2.98263e-08 m^3/s
DILUPBiCG:  Solving for H, Initial residual = 1.54313e-05, Final residual = 8.74821e-13, No Iterations 1
DILUPBiCG:  Solving for H, Initial residual = 1.32068e-07, Final residual = 3.03094e-15, No Iterations 1
DILUPBiCG:  Solving for H, Initial residual = 1.03856e-08, Final residual = 1.06196e-15, No Iterations 1
ExecutionTime = 0.36 s  ClockTime = 0 s

Courant Number mean: 0.00745659 max: 0.0135656
Interface Courant Number mean: 1.25321e-05 max: 0.00680778
Fourier number mean: 0.10113 max: 0.249941
deltaT = 8.40336e-07
Time = 0.00601092

MULES: Solving for alpha1
Liquid phase volume fraction = 0.00491759  Min(alpha1) = 0  Max(alpha1) = 1
MULES: Solving for alpha1
Liquid phase volume fraction = 0.00491773  Min(alpha1) = 0  Max(alpha1) = 1
MULES: Solving for alpha1
Liquid phase volume fraction = 0.00491787  Min(alpha1) = 0  Max(alpha1) = 1
PIMPLE: iteration 1
GAMG:  Solving for p_rgh, Initial residual = 0.000168779, Final residual = 7.69003e-07, No Iterations 1
GAMG:  Solving for p_rgh, Initial residual = 7.68458e-07, Final residual = 2.42521e-08, No Iterations 3
time step continuity errors : sum local = 2.50654e-05, global = -2.50654e-05, cumulative = -0.000651508
GAMG:  Solving for p_rgh, Initial residual = 2.54429e-05, Final residual = 6.77099e-07, No Iterations 1
GAMGPCG:  Solving for p_rgh, Initial residual = 6.77432e-07, Final residual = 3.49852e-11, No Iterations 2
time step continuity errors : sum local = 2.50654e-05, global = -2.50654e-05, cumulative = -0.000676573
****
****Pressure range: 2.37274 Pa
****Max velocity: 0.0420761 m/s
****Phase change energy: -0.0911061 W
****Volume change: -2.98278e-08 m^3/s
DILUPBiCG:  Solving for H, Initial residual = 1.53999e-05, Final residual = 8.6008e-13, No Iterations 1
DILUPBiCG:  Solving for H, Initial residual = 1.32124e-07, Final residual = 3.08983e-15, No Iterations 1
DILUPBiCG:  Solving for H, Initial residual = 1.04566e-08, Final residual = 1.07185e-15, No Iterations 1
ExecutionTime = 0.39 s  ClockTime = 0 s

Courant Number mean: 0.00745696 max: 0.0135663
Interface Courant Number mean: 1.25327e-05 max: 0.00680814
Fourier number mean: 0.10113 max: 0.249941
deltaT = 8.40336e-07
Time = 0.00601176

MULES: Solving for alpha1
Liquid phase volume fraction = 0.00491801  Min(alpha1) = 0  Max(alpha1) = 1
MULES: Solving for alpha1
Liquid phase volume fraction = 0.00491815  Min(alpha1) = 0  Max(alpha1) = 1
MULES: Solving for alpha1
Liquid phase volume fraction = 0.00491829  Min(alpha1) = 0  Max(alpha1) = 1
PIMPLE: iteration 1
GAMG:  Solving for p_rgh, Initial residual = 0.000161361, Final residual = 6.90228e-07, No Iterations 1
GAMG:  Solving for p_rgh, Initial residual = 6.89777e-07, Final residual = 2.19288e-08, No Iterations 3
time step continuity errors : sum local = 2.50666e-05, global = -2.50666e-05, cumulative = -0.00070164
GAMG:  Solving for p_rgh, Initial residual = 2.00044e-05, Final residual = 6.76815e-07, No Iterations 1
GAMGPCG:  Solving for p_rgh, Initial residual = 6.77152e-07, Final residual = 3.48731e-11, No Iterations 2
time step continuity errors : sum local = 2.50666e-05, global = -2.50666e-05, cumulative = -0.000726707
****
****Pressure range: 2.37322 Pa
****Max velocity: 0.0420801 m/s
****Phase change energy: -0.0911107 W
****Volume change: -2.98293e-08 m^3/s
DILUPBiCG:  Solving for H, Initial residual = 1.53791e-05, Final residual = 8.47736e-13, No Iterations 1
DILUPBiCG:  Solving for H, Initial residual = 1.32194e-07, Final residual = 3.14445e-15, No Iterations 1
DILUPBiCG:  Solving for H, Initial residual = 1.05313e-08, Final residual = 1.0829e-15, No Iterations 1
ExecutionTime = 0.41 s  ClockTime = 0 s

Courant Number mean: 0.00745734 max: 0.013567
Interface Courant Number mean: 1.25333e-05 max: 0.0068085
Fourier number mean: 0.10113 max: 0.249941
deltaT = 8.40336e-07
Time = 0.00601261

MULES: Solving for alpha1
Liquid phase volume fraction = 0.00491843  Min(alpha1) = 0  Max(alpha1) = 1
MULES: Solving for alpha1
Liquid phase volume fraction = 0.00491857  Min(alpha1) = 0  Max(alpha1) = 1
MULES: Solving for alpha1
Liquid phase volume fraction = 0.00491871  Min(alpha1) = 0  Max(alpha1) = 1
PIMPLE: iteration 1
GAMG:  Solving for p_rgh, Initial residual = 0.000156607, Final residual = 6.24306e-07, No Iterations 1
GAMG:  Solving for p_rgh, Initial residual = 6.23926e-07, Final residual = 1.99748e-08, No Iterations 3
time step continuity errors : sum local = 2.50679e-05, global = -2.50679e-05, cumulative = -0.000751775
GAMG:  Solving for p_rgh, Initial residual = 1.77587e-05, Final residual = 6.70929e-07, No Iterations 1
GAMGPCG:  Solving for p_rgh, Initial residual = 6.71262e-07, Final residual = 3.44594e-11, No Iterations 2
time step continuity errors : sum local = 2.50679e-05, global = -2.50679e-05, cumulative = -0.000776843
****
****Pressure range: 2.3738 Pa
****Max velocity: 0.042084 m/s
****Phase change energy: -0.0911152 W
****Volume change: -2.98308e-08 m^3/s
DILUPBiCG:  Solving for H, Initial residual = 1.53632e-05, Final residual = 8.37713e-13, No Iterations 1
DILUPBiCG:  Solving for H, Initial residual = 1.3223e-07, Final residual = 3.18567e-15, No Iterations 1
DILUPBiCG:  Solving for H, Initial residual = 1.05843e-08, Final residual = 1.09023e-15, No Iterations 1
ExecutionTime = 0.43 s  ClockTime = 0 s

Courant Number mean: 0.00745771 max: 0.0135677
Interface Courant Number mean: 1.2534e-05 max: 0.00680885
Fourier number mean: 0.10113 max: 0.249941
deltaT = 8.40336e-07
Time = 0.00601345

MULES: Solving for alpha1
Liquid phase volume fraction = 0.00491885  Min(alpha1) = 0  Max(alpha1) = 1
MULES: Solving for alpha1
Liquid phase volume fraction = 0.00491899  Min(alpha1) = 0  Max(alpha1) = 1
MULES: Solving for alpha1
Liquid phase volume fraction = 0.00491913  Min(alpha1) = 0  Max(alpha1) = 1
PIMPLE: iteration 1
GAMG:  Solving for p_rgh, Initial residual = 0.000153748, Final residual = 6.5498e-07, No Iterations 1
GAMG:  Solving for p_rgh, Initial residual = 6.54571e-07, Final residual = 2.08767e-08, No Iterations 3
time step continuity errors : sum local = 2.50691e-05, global = -2.50691e-05, cumulative = -0.000801912
GAMG:  Solving for p_rgh, Initial residual = 1.65353e-05, Final residual = 6.67112e-07, No Iterations 1
GAMGPCG:  Solving for p_rgh, Initial residual = 6.67443e-07, Final residual = 3.42745e-11, No Iterations 2
time step continuity errors : sum local = 2.50691e-05, global = -2.50691e-05, cumulative = -0.000826981
****
****Pressure range: 2.37442 Pa
****Max velocity: 0.0420878 m/s
****Phase change energy: -0.0911197 W
****Volume change: -2.98323e-08 m^3/s
DILUPBiCG:  Solving for H, Initial residual = 1.53498e-05, Final residual = 8.29238e-13, No Iterations 1
DILUPBiCG:  Solving for H, Initial residual = 1.32249e-07, Final residual = 3.21516e-15, No Iterations 1
DILUPBiCG:  Solving for H, Initial residual = 1.06248e-08, Final residual = 1.09584e-15, No Iterations 1
ExecutionTime = 0.45 s  ClockTime = 0 s

Courant Number mean: 0.00745808 max: 0.0135684
Interface Courant Number mean: 1.25346e-05 max: 0.00680918
Fourier number mean: 0.10113 max: 0.249941
deltaT = 8.40336e-07
Time = 0.00601429

MULES: Solving for alpha1
Liquid phase volume fraction = 0.00491928  Min(alpha1) = 0  Max(alpha1) = 1
MULES: Solving for alpha1
Liquid phase volume fraction = 0.00491942  Min(alpha1) = 0  Max(alpha1) = 1
MULES: Solving for alpha1
Liquid phase volume fraction = 0.00491956  Min(alpha1) = 0  Max(alpha1) = 1
PIMPLE: iteration 1
GAMG:  Solving for p_rgh, Initial residual = 0.000152296, Final residual = 6.94777e-07, No Iterations 1
GAMG:  Solving for p_rgh, Initial residual = 6.94325e-07, Final residual = 2.20471e-08, No Iterations 3
time step continuity errors : sum local = 2.50704e-05, global = -2.50704e-05, cumulative = -0.000852051
GAMG:  Solving for p_rgh, Initial residual = 1.57427e-05, Final residual = 6.66829e-07, No Iterations 1
GAMGPCG:  Solving for p_rgh, Initial residual = 6.67162e-07, Final residual = 3.43022e-11, No Iterations 2
time step continuity errors : sum local = 2.50704e-05, global = -2.50704e-05, cumulative = -0.000877122
****
****Pressure range: 2.37506 Pa
****Max velocity: 0.0420916 m/s
****Phase change energy: -0.0911242 W
****Volume change: -2.98337e-08 m^3/s
DILUPBiCG:  Solving for H, Initial residual = 1.53389e-05, Final residual = 8.22124e-13, No Iterations 1
DILUPBiCG:  Solving for H, Initial residual = 1.32271e-07, Final residual = 3.23828e-15, No Iterations 1
DILUPBiCG:  Solving for H, Initial residual = 1.06642e-08, Final residual = 1.10136e-15, No Iterations 1
ExecutionTime = 0.48 s  ClockTime = 0 s

Courant Number mean: 0.00745845 max: 0.0135691
Interface Courant Number mean: 1.25352e-05 max: 0.00680953
Fourier number mean: 0.10113 max: 0.249941
deltaT = 8.40336e-07
Time = 0.00601513

MULES: Solving for alpha1
Liquid phase volume fraction = 0.0049197  Min(alpha1) = 0  Max(alpha1) = 1
MULES: Solving for alpha1
Liquid phase volume fraction = 0.00491984  Min(alpha1) = 0  Max(alpha1) = 1
MULES: Solving for alpha1
Liquid phase volume fraction = 0.00491998  Min(alpha1) = 0  Max(alpha1) = 1
PIMPLE: iteration 1
GAMG:  Solving for p_rgh, Initial residual = 0.000151387, Final residual = 7.09284e-07, No Iterations 1
GAMG:  Solving for p_rgh, Initial residual = 7.08817e-07, Final residual = 2.24785e-08, No Iterations 3
time step continuity errors : sum local = 2.50716e-05, global = -2.50716e-05, cumulative = -0.000902193
GAMG:  Solving for p_rgh, Initial residual = 1.52186e-05, Final residual = 6.6801e-07, No Iterations 1
GAMGPCG:  Solving for p_rgh, Initial residual = 6.68345e-07, Final residual = 3.43897e-11, No Iterations 2
time step continuity errors : sum local = 2.50716e-05, global = -2.50716e-05, cumulative = -0.000927265
****
****Pressure range: 2.37569 Pa
****Max velocity: 0.0420955 m/s
****Phase change energy: -0.0911287 W
****Volume change: -2.98352e-08 m^3/s
DILUPBiCG:  Solving for H, Initial residual = 1.53305e-05, Final residual = 8.15702e-13, No Iterations 1
DILUPBiCG:  Solving for H, Initial residual = 1.32275e-07, Final residual = 3.2527e-15, No Iterations 1
DILUPBiCG:  Solving for H, Initial residual = 1.0691e-08, Final residual = 1.10467e-15, No Iterations 1
ExecutionTime = 0.5 s  ClockTime = 0 s

Courant Number mean: 0.00745882 max: 0.0135698
Interface Courant Number mean: 1.25358e-05 max: 0.00680988
Fourier number mean: 0.10113 max: 0.249941
deltaT = 8.40336e-07
Time = 0.00601597

MULES: Solving for alpha1
Liquid phase volume fraction = 0.00492012  Min(alpha1) = 0  Max(alpha1) = 1
MULES: Solving for alpha1
Liquid phase volume fraction = 0.00492026  Min(alpha1) = 0  Max(alpha1) = 1
MULES: Solving for alpha1
Liquid phase volume fraction = 0.0049204  Min(alpha1) = 0  Max(alpha1) = 1
PIMPLE: iteration 1
GAMG:  Solving for p_rgh, Initial residual = 0.000150772, Final residual = 7.48221e-07, No Iterations 1
GAMG:  Solving for p_rgh, Initial residual = 7.47711e-07, Final residual = 2.36389e-08, No Iterations 3
time step continuity errors : sum local = 2.50729e-05, global = -2.50729e-05, cumulative = -0.000952338
GAMG:  Solving for p_rgh, Initial residual = 1.49607e-05, Final residual = 6.72079e-07, No Iterations 1
GAMGPCG:  Solving for p_rgh, Initial residual = 6.72418e-07, Final residual = 3.46731e-11, No Iterations 2
time step continuity errors : sum local = 2.50729e-05, global = -2.50729e-05, cumulative = -0.000977411
****
****Pressure range: 2.37631 Pa
****Max velocity: 0.0420993 m/s
****Phase change energy: -0.0911333 W
****Volume change: -2.98367e-08 m^3/s
DILUPBiCG:  Solving for H, Initial residual = 1.53243e-05, Final residual = 8.09872e-13, No Iterations 1
DILUPBiCG:  Solving for H, Initial residual = 1.32293e-07, Final residual = 3.26933e-15, No Iterations 1
DILUPBiCG:  Solving for H, Initial residual = 1.07237e-08, Final residual = 1.10972e-15, No Iterations 1
ExecutionTime = 0.52 s  ClockTime = 0 s

Courant Number mean: 0.00745919 max: 0.0135705
Interface Courant Number mean: 1.25364e-05 max: 0.00681023
Fourier number mean: 0.10113 max: 0.249941
deltaT = 8.40336e-07
Time = 0.00601681

MULES: Solving for alpha1
Liquid phase volume fraction = 0.00492054  Min(alpha1) = 0  Max(alpha1) = 1
MULES: Solving for alpha1
Liquid phase volume fraction = 0.00492068  Min(alpha1) = 0  Max(alpha1) = 1
MULES: Solving for alpha1
Liquid phase volume fraction = 0.00492082  Min(alpha1) = 0  Max(alpha1) = 1
PIMPLE: iteration 1
GAMG:  Solving for p_rgh, Initial residual = 0.000150417, Final residual = 7.0411e-07, No Iterations 1
GAMG:  Solving for p_rgh, Initial residual = 7.03649e-07, Final residual = 2.23366e-08, No Iterations 3
time step continuity errors : sum local = 2.50741e-05, global = -2.50741e-05, cumulative = -0.00100248
GAMG:  Solving for p_rgh, Initial residual = 1.48082e-05, Final residual = 6.72931e-07, No Iterations 1
GAMGPCG:  Solving for p_rgh, Initial residual = 6.73271e-07, Final residual = 3.46804e-11, No Iterations 2
time step continuity errors : sum local = 2.50741e-05, global = -2.50741e-05, cumulative = -0.00102756
****
****Pressure range: 2.37694 Pa
****Max velocity: 0.0421031 m/s
****Phase change energy: -0.0911378 W
****Volume change: -2.98382e-08 m^3/s
DILUPBiCG:  Solving for H, Initial residual = 1.53197e-05, Final residual = 8.04545e-13, No Iterations 1
DILUPBiCG:  Solving for H, Initial residual = 1.32318e-07, Final residual = 3.28901e-15, No Iterations 1
DILUPBiCG:  Solving for H, Initial residual = 1.07575e-08, Final residual = 1.11565e-15, No Iterations 1
ExecutionTime = 0.55 s  ClockTime = 0 s

Courant Number mean: 0.00745956 max: 0.0135712
Interface Courant Number mean: 1.25371e-05 max: 0.00681058
Fourier number mean: 0.10113 max: 0.249941
deltaT = 8.40336e-07
Time = 0.00601765

MULES: Solving for alpha1
Liquid phase volume fraction = 0.00492096  Min(alpha1) = 0  Max(alpha1) = 1
MULES: Solving for alpha1
Liquid phase volume fraction = 0.00492111  Min(alpha1) = 0  Max(alpha1) = 1
MULES: Solving for alpha1
Liquid phase volume fraction = 0.00492125  Min(alpha1) = 0  Max(alpha1) = 1
PIMPLE: iteration 1
GAMG:  Solving for p_rgh, Initial residual = 0.000150231, Final residual = 6.50743e-07, No Iterations 1
GAMG:  Solving for p_rgh, Initial residual = 6.5034e-07, Final residual = 2.07518e-08, No Iterations 3
time step continuity errors : sum local = 2.50754e-05, global = -2.50754e-05, cumulative = -0.00105263
GAMG:  Solving for p_rgh, Initial residual = 1.46789e-05, Final residual = 6.69357e-07, No Iterations 1
GAMGPCG:  Solving for p_rgh, Initial residual = 6.69694e-07, Final residual = 3.44232e-11, No Iterations 2
time step continuity errors : sum local = 2.50754e-05, global = -2.50754e-05, cumulative = -0.00107771
****
****Pressure range: 2.3776 Pa
****Max velocity: 0.0421069 m/s
****Phase change energy: -0.0911424 W
****Volume change: -2.98397e-08 m^3/s
DILUPBiCG:  Solving for H, Initial residual = 1.53157e-05, Final residual = 7.99602e-13, No Iterations 1
DILUPBiCG:  Solving for H, Initial residual = 1.32327e-07, Final residual = 3.30573e-15, No Iterations 1
DILUPBiCG:  Solving for H, Initial residual = 1.07801e-08, Final residual = 1.11966e-15, No Iterations 1
ExecutionTime = 0.57 s  ClockTime = 0 s

Courant Number mean: 0.00745993 max: 0.0135719
Interface Courant Number mean: 1.25377e-05 max: 0.00681092
Fourier number mean: 0.10113 max: 0.249941
deltaT = 8.40336e-07
Time = 0.00601849

MULES: Solving for alpha1
Liquid phase volume fraction = 0.00492139  Min(alpha1) = 0  Max(alpha1) = 1
MULES: Solving for alpha1
Liquid phase volume fraction = 0.00492153  Min(alpha1) = 0  Max(alpha1) = 1
MULES: Solving for alpha1
Liquid phase volume fraction = 0.00492167  Min(alpha1) = 0  Max(alpha1) = 1
PIMPLE: iteration 1
GAMG:  Solving for p_rgh, Initial residual = 0.000150098, Final residual = 6.49609e-07, No Iterations 1
GAMG:  Solving for p_rgh, Initial residual = 6.49207e-07, Final residual = 2.07118e-08, No Iterations 3
time step continuity errors : sum local = 2.50766e-05, global = -2.50766e-05, cumulative = -0.00110279
GAMG:  Solving for p_rgh, Initial residual = 1.45866e-05, Final residual = 6.65457e-07, No Iterations 1
GAMGPCG:  Solving for p_rgh, Initial residual = 6.6579e-07, Final residual = 3.42033e-11, No Iterations 2
time step continuity errors : sum local = 2.50766e-05, global = -2.50766e-05, cumulative = -0.00112786
****
****Pressure range: 2.37828 Pa
****Max velocity: 0.0421106 m/s
****Phase change energy: -0.0911469 W
****Volume change: -2.98412e-08 m^3/s
DILUPBiCG:  Solving for H, Initial residual = 1.53115e-05, Final residual = 7.95102e-13, No Iterations 1
DILUPBiCG:  Solving for H, Initial residual = 1.32316e-07, Final residual = 3.3154e-15, No Iterations 1
DILUPBiCG:  Solving for H, Initial residual = 1.07897e-08, Final residual = 1.12128e-15, No Iterations 1
ExecutionTime = 0.6 s  ClockTime = 0 s

Courant Number mean: 0.0074603 max: 0.0135725
Interface Courant Number mean: 1.25383e-05 max: 0.00681126
Fourier number mean: 0.10113 max: 0.249941
deltaT = 8.40336e-07
Time = 0.00601933

MULES: Solving for alpha1
Liquid phase volume fraction = 0.00492181  Min(alpha1) = 0  Max(alpha1) = 1
MULES: Solving for alpha1
Liquid phase volume fraction = 0.00492195  Min(alpha1) = 0  Max(alpha1) = 1
MULES: Solving for alpha1
Liquid phase volume fraction = 0.00492209  Min(alpha1) = 0  Max(alpha1) = 1
PIMPLE: iteration 1
GAMG:  Solving for p_rgh, Initial residual = 0.000149936, Final residual = 6.891e-07, No Iterations 1
GAMG:  Solving for p_rgh, Initial residual = 6.88657e-07, Final residual = 2.18761e-08, No Iterations 3
time step continuity errors : sum local = 2.50778e-05, global = -2.50778e-05, cumulative = -0.00115294
GAMG:  Solving for p_rgh, Initial residual = 1.45581e-05, Final residual = 6.6475e-07, No Iterations 1
GAMGPCG:  Solving for p_rgh, Initial residual = 6.65083e-07, Final residual = 3.42072e-11, No Iterations 2
time step continuity errors : sum local = 2.50778e-05, global = -2.50778e-05, cumulative = -0.00117802
****
****Pressure range: 2.37897 Pa
****Max velocity: 0.0421143 m/s
****Phase change energy: -0.0911514 W
****Volume change: -2.98426e-08 m^3/s
DILUPBiCG:  Solving for H, Initial residual = 1.53079e-05, Final residual = 7.90957e-13, No Iterations 1
DILUPBiCG:  Solving for H, Initial residual = 1.32312e-07, Final residual = 3.32253e-15, No Iterations 1
DILUPBiCG:  Solving for H, Initial residual = 1.08018e-08, Final residual = 1.12331e-15, No Iterations 1
ExecutionTime = 0.62 s  ClockTime = 0 s

Courant Number mean: 0.00746067 max: 0.0135732
Interface Courant Number mean: 1.25389e-05 max: 0.0068116
Fourier number mean: 0.10113 max: 0.249941
deltaT = 8.40336e-07
Time = 0.00602017

MULES: Solving for alpha1
Liquid phase volume fraction = 0.00492223  Min(alpha1) = 0  Max(alpha1) = 1
MULES: Solving for alpha1
Liquid phase volume fraction = 0.00492237  Min(alpha1) = 0  Max(alpha1) = 1
MULES: Solving for alpha1
Liquid phase volume fraction = 0.00492251  Min(alpha1) = 0  Max(alpha1) = 1
PIMPLE: iteration 1
GAMG:  Solving for p_rgh, Initial residual = 0.000149691, Final residual = 7.01374e-07, No Iterations 1
GAMG:  Solving for p_rgh, Initial residual = 7.00918e-07, Final residual = 2.2239e-08, No Iterations 3
time step continuity errors : sum local = 2.50791e-05, global = -2.50791e-05, cumulative = -0.0012031
GAMG:  Solving for p_rgh, Initial residual = 1.45536e-05, Final residual = 6.65394e-07, No Iterations 1
GAMGPCG:  Solving for p_rgh, Initial residual = 6.65727e-07, Final residual = 3.42589e-11, No Iterations 2
time step continuity errors : sum local = 2.50791e-05, global = -2.50791e-05, cumulative = -0.00122818
****
****Pressure range: 2.37963 Pa
****Max velocity: 0.042118 m/s
****Phase change energy: -0.0911559 W
****Volume change: -2.98441e-08 m^3/s
DILUPBiCG:  Solving for H, Initial residual = 1.53053e-05, Final residual = 7.87082e-13, No Iterations 1
DILUPBiCG:  Solving for H, Initial residual = 1.32299e-07, Final residual = 3.32484e-15, No Iterations 1
DILUPBiCG:  Solving for H, Initial residual = 1.08073e-08, Final residual = 1.12394e-15, No Iterations 1
ExecutionTime = 0.64 s  ClockTime = 1 s

Courant Number mean: 0.00746104 max: 0.0135739
Interface Courant Number mean: 1.25395e-05 max: 0.00681194
Fourier number mean: 0.10113 max: 0.249941
deltaT = 8.40336e-07
Time = 0.00602101

MULES: Solving for alpha1
Liquid phase volume fraction = 0.00492265  Min(alpha1) = 0  Max(alpha1) = 1
MULES: Solving for alpha1
Liquid phase volume fraction = 0.0049228  Min(alpha1) = 0  Max(alpha1) = 1
MULES: Solving for alpha1
Liquid phase volume fraction = 0.00492294  Min(alpha1) = 0  Max(alpha1) = 1
PIMPLE: iteration 1
GAMG:  Solving for p_rgh, Initial residual = 0.000149504, Final residual = 7.33633e-07, No Iterations 1
GAMG:  Solving for p_rgh, Initial residual = 7.33141e-07, Final residual = 2.31998e-08, No Iterations 3
time step continuity errors : sum local = 2.50803e-05, global = -2.50803e-05, cumulative = -0.00125326
GAMG:  Solving for p_rgh, Initial residual = 1.46065e-05, Final residual = 6.68466e-07, No Iterations 1
GAMGPCG:  Solving for p_rgh, Initial residual = 6.68802e-07, Final residual = 3.44745e-11, No Iterations 2
time step continuity errors : sum local = 2.50803e-05, global = -2.50803e-05, cumulative = -0.00127834
****
****Pressure range: 2.38028 Pa
****Max velocity: 0.0421217 m/s
****Phase change energy: -0.0911604 W
****Volume change: -2.98456e-08 m^3/s
DILUPBiCG:  Solving for H, Initial residual = 1.53035e-05, Final residual = 7.83491e-13, No Iterations 1
DILUPBiCG:  Solving for H, Initial residual = 1.323e-07, Final residual = 3.32983e-15, No Iterations 1
DILUPBiCG:  Solving for H, Initial residual = 1.08186e-08, Final residual = 1.12588e-15, No Iterations 1
ExecutionTime = 0.66 s  ClockTime = 1 s

Courant Number mean: 0.00746141 max: 0.0135746
Interface Courant Number mean: 1.25402e-05 max: 0.00681229
Fourier number mean: 0.10113 max: 0.249941
deltaT = 8.40336e-07
Time = 0.00602185

MULES: Solving for alpha1
Liquid phase volume fraction = 0.00492308  Min(alpha1) = 0  Max(alpha1) = 1
MULES: Solving for alpha1
Liquid phase volume fraction = 0.00492322  Min(alpha1) = 0  Max(alpha1) = 1
MULES: Solving for alpha1
Liquid phase volume fraction = 0.00492336  Min(alpha1) = 0  Max(alpha1) = 1
PIMPLE: iteration 1
GAMG:  Solving for p_rgh, Initial residual = 0.000149433, Final residual = 7.05371e-07, No Iterations 1
GAMG:  Solving for p_rgh, Initial residual = 7.04911e-07, Final residual = 2.23666e-08, No Iterations 3
time step continuity errors : sum local = 2.50816e-05, global = -2.50816e-05, cumulative = -0.00130342
GAMG:  Solving for p_rgh, Initial residual = 1.46235e-05, Final residual = 6.69523e-07, No Iterations 1
GAMGPCG:  Solving for p_rgh, Initial residual = 6.69861e-07, Final residual = 3.45086e-11, No Iterations 2
time step continuity errors : sum local = 2.50816e-05, global = -2.50816e-05, cumulative = -0.0013285
****
****Pressure range: 2.38093 Pa
****Max velocity: 0.0421254 m/s
****Phase change energy: -0.0911649 W
****Volume change: -2.98471e-08 m^3/s
DILUPBiCG:  Solving for H, Initial residual = 1.53023e-05, Final residual = 7.80182e-13, No Iterations 1
DILUPBiCG:  Solving for H, Initial residual = 1.32312e-07, Final residual = 3.33939e-15, No Iterations 1
DILUPBiCG:  Solving for H, Initial residual = 1.08349e-08, Final residual = 1.12913e-15, No Iterations 1
ExecutionTime = 0.68 s  ClockTime = 1 s

Courant Number mean: 0.00746178 max: 0.0135753
Interface Courant Number mean: 1.25408e-05 max: 0.00681264
Fourier number mean: 0.10113 max: 0.249941
deltaT = 8.40336e-07
Time = 0.00602269

MULES: Solving for alpha1
Liquid phase volume fraction = 0.0049235  Min(alpha1) = 0  Max(alpha1) = 1
MULES: Solving for alpha1
Liquid phase volume fraction = 0.00492364  Min(alpha1) = 0  Max(alpha1) = 1
MULES: Solving for alpha1
Liquid phase volume fraction = 0.00492378  Min(alpha1) = 0  Max(alpha1) = 1
PIMPLE: iteration 1
GAMG:  Solving for p_rgh, Initial residual = 0.000149437, Final residual = 6.57441e-07, No Iterations 1
GAMG:  Solving for p_rgh, Initial residual = 6.57032e-07, Final residual = 2.09442e-08, No Iterations 3
time step continuity errors : sum local = 2.50828e-05, global = -2.50828e-05, cumulative = -0.00135358
GAMG:  Solving for p_rgh, Initial residual = 1.45807e-05, Final residual = 6.66703e-07, No Iterations 1
GAMGPCG:  Solving for p_rgh, Initial residual = 6.67038e-07, Final residual = 3.43003e-11, No Iterations 2
time step continuity errors : sum local = 2.50828e-05, global = -2.50828e-05, cumulative = -0.00137867
****
****Pressure range: 2.3816 Pa
****Max velocity: 0.0421291 m/s
****Phase change energy: -0.0911694 W
****Volume change: -2.98485e-08 m^3/s
DILUPBiCG:  Solving for H, Initial residual = 1.53014e-05, Final residual = 7.77076e-13, No Iterations 1
DILUPBiCG:  Solving for H, Initial residual = 1.32316e-07, Final residual = 3.34832e-15, No Iterations 1
DILUPBiCG:  Solving for H, Initial residual = 1.08451e-08, Final residual = 1.13138e-15, No Iterations 1
ExecutionTime = 0.7 s  ClockTime = 1 s

Courant Number mean: 0.00746215 max: 0.013576
Interface Courant Number mean: 1.25414e-05 max: 0.00681298
Fourier number mean: 0.10113 max: 0.249941
deltaT = 8.40336e-07
Time = 0.00602353

MULES: Solving for alpha1
Liquid phase volume fraction = 0.00492392  Min(alpha1) = 0  Max(alpha1) = 1
MULES: Solving for alpha1
Liquid phase volume fraction = 0.00492406  Min(alpha1) = 0  Max(alpha1) = 1
MULES: Solving for alpha1
Liquid phase volume fraction = 0.0049242  Min(alpha1) = 0  Max(alpha1) = 1
PIMPLE: iteration 1
GAMG:  Solving for p_rgh, Initial residual = 0.00014943, Final residual = 6.49485e-07, No Iterations 1
GAMG:  Solving for p_rgh, Initial residual = 6.49085e-07, Final residual = 2.07008e-08, No Iterations 3
time step continuity errors : sum local = 2.5084e-05, global = -2.5084e-05, cumulative = -0.00140375
GAMG:  Solving for p_rgh, Initial residual = 1.45293e-05, Final residual = 6.63065e-07, No Iterations 1
GAMGPCG:  Solving for p_rgh, Initial residual = 6.63396e-07, Final residual = 3.40855e-11, No Iterations 2
time step continuity errors : sum local = 2.5084e-05, global = -2.5084e-05, cumulative = -0.00142883
****
****Pressure range: 2.38228 Pa
****Max velocity: 0.0421328 m/s
****Phase change energy: -0.0911739 W
****Volume change: -2.985e-08 m^3/s
DILUPBiCG:  Solving for H, Initial residual = 1.53e-05, Final residual = 7.74267e-13, No Iterations 1
DILUPBiCG:  Solving for H, Initial residual = 1.32302e-07, Final residual = 3.35141e-15, No Iterations 1
DILUPBiCG:  Solving for H, Initial residual = 1.08438e-08, Final residual = 1.13128e-15, No Iterations 1
ExecutionTime = 0.72 s  ClockTime = 1 s

Courant Number mean: 0.00746251 max: 0.0135766
Interface Courant Number mean: 1.2542e-05 max: 0.00681331
Fourier number mean: 0.10113 max: 0.249941
deltaT = 8.40336e-07
Time = 0.00602437

MULES: Solving for alpha1
Liquid phase volume fraction = 0.00492434  Min(alpha1) = 0  Max(alpha1) = 1
MULES: Solving for alpha1
Liquid phase volume fraction = 0.00492448  Min(alpha1) = 0  Max(alpha1) = 1
MULES: Solving for alpha1
Liquid phase volume fraction = 0.00492463  Min(alpha1) = 0  Max(alpha1) = 1
PIMPLE: iteration 1
GAMG:  Solving for p_rgh, Initial residual = 0.000149385, Final residual = 6.89283e-07, No Iterations 1
GAMG:  Solving for p_rgh, Initial residual = 6.88841e-07, Final residual = 2.18757e-08, No Iterations 3
time step continuity errors : sum local = 2.50853e-05, global = -2.50853e-05, cumulative = -0.00145392
GAMG:  Solving for p_rgh, Initial residual = 1.4528e-05, Final residual = 6.62554e-07, No Iterations 1
GAMGPCG:  Solving for p_rgh, Initial residual = 6.62884e-07, Final residual = 3.41006e-11, No Iterations 2
time step continuity errors : sum local = 2.50853e-05, global = -2.50853e-05, cumulative = -0.001479
****
****Pressure range: 2.38297 Pa
****Max velocity: 0.0421365 m/s
****Phase change energy: -0.0911784 W
****Volume change: -2.98515e-08 m^3/s
DILUPBiCG:  Solving for H, Initial residual = 1.52985e-05, Final residual = 7.71609e-13, No Iterations 1
DILUPBiCG:  Solving for H, Initial residual = 1.32297e-07, Final residual = 3.35357e-15, No Iterations 1
DILUPBiCG:  Solving for H, Initial residual = 1.08466e-08, Final residual = 1.13184e-15, No Iterations 1
ExecutionTime = 0.74 s  ClockTime = 1 s

Courant Number mean: 0.00746288 max: 0.0135773
Interface Courant Number mean: 1.25426e-05 max: 0.00681365
Fourier number mean: 0.10113 max: 0.249941
deltaT = 8.40336e-07
Time = 0.00602521

MULES: Solving for alpha1
Liquid phase volume fraction = 0.00492477  Min(alpha1) = 0  Max(alpha1) = 1
MULES: Solving for alpha1
Liquid phase volume fraction = 0.00492491  Min(alpha1) = 0  Max(alpha1) = 1
MULES: Solving for alpha1
Liquid phase volume fraction = 0.00492505  Min(alpha1) = 0  Max(alpha1) = 1
PIMPLE: iteration 1
GAMG:  Solving for p_rgh, Initial residual = 0.000149237, Final residual = 6.95456e-07, No Iterations 1
GAMG:  Solving for p_rgh, Initial residual = 6.95008e-07, Final residual = 2.20579e-08, No Iterations 3
time step continuity errors : sum local = 2.50865e-05, global = -2.50865e-05, cumulative = -0.00150409
GAMG:  Solving for p_rgh, Initial residual = 1.45345e-05, Final residual = 6.62937e-07, No Iterations 1
GAMGPCG:  Solving for p_rgh, Initial residual = 6.63268e-07, Final residual = 3.413e-11, No Iterations 2
time step continuity errors : sum local = 2.50865e-05, global = -2.50865e-05, cumulative = -0.00152918
****
****Pressure range: 2.38364 Pa
****Max velocity: 0.0421401 m/s
****Phase change energy: -0.0911829 W
****Volume change: -2.98529e-08 m^3/s
DILUPBiCG:  Solving for H, Initial residual = 1.52975e-05, Final residual = 7.69107e-13, No Iterations 1
DILUPBiCG:  Solving for H, Initial residual = 1.32286e-07, Final residual = 3.35235e-15, No Iterations 1
DILUPBiCG:  Solving for H, Initial residual = 1.08455e-08, Final residual = 1.13147e-15, No Iterations 1
ExecutionTime = 0.75 s  ClockTime = 1 s

Courant Number mean: 0.00746325 max: 0.013578
Interface Courant Number mean: 1.25433e-05 max: 0.00681399
Fourier number mean: 0.10113 max: 0.249941
deltaT = 8.40336e-07
Time = 0.00602605

MULES: Solving for alpha1
Liquid phase volume fraction = 0.00492519  Min(alpha1) = 0  Max(alpha1) = 1
MULES: Solving for alpha1
Liquid phase volume fraction = 0.00492533  Min(alpha1) = 0  Max(alpha1) = 1
MULES: Solving for alpha1
Liquid phase volume fraction = 0.00492547  Min(alpha1) = 0  Max(alpha1) = 1
PIMPLE: iteration 1
GAMG:  Solving for p_rgh, Initial residual = 0.000149109, Final residual = 7.22044e-07, No Iterations 1
GAMG:  Solving for p_rgh, Initial residual = 7.21566e-07, Final residual = 2.28496e-08, No Iterations 3
time step continuity errors : sum local = 2.50878e-05, global = -2.50877e-05, cumulative = -0.00155427
GAMG:  Solving for p_rgh, Initial residual = 1.45726e-05, Final residual = 6.65296e-07, No Iterations 1
GAMGPCG:  Solving for p_rgh, Initial residual = 6.65629e-07, Final residual = 3.42964e-11, No Iterations 2
time step continuity errors : sum local = 2.50878e-05, global = -2.50878e-05, cumulative = -0.00157935
****
****Pressure range: 2.38429 Pa
****Max velocity: 0.0421438 m/s
****Phase change energy: -0.0911874 W
****Volume change: -2.98544e-08 m^3/s
DILUPBiCG:  Solving for H, Initial residual = 1.52972e-05, Final residual = 7.66745e-13, No Iterations 1
DILUPBiCG:  Solving for H, Initial residual = 1.32286e-07, Final residual = 3.3533e-15, No Iterations 1
DILUPBiCG:  Solving for H, Initial residual = 1.08493e-08, Final residual = 1.13212e-15, No Iterations 1
ExecutionTime = 0.77 s  ClockTime = 1 s

Courant Number mean: 0.00746362 max: 0.0135787
Interface Courant Number mean: 1.25439e-05 max: 0.00681433
Fourier number mean: 0.10113 max: 0.249941
deltaT = 8.40336e-07
Time = 0.00602689

MULES: Solving for alpha1
Liquid phase volume fraction = 0.00492561  Min(alpha1) = 0  Max(alpha1) = 1
MULES: Solving for alpha1
Liquid phase volume fraction = 0.00492575  Min(alpha1) = 0  Max(alpha1) = 1
MULES: Solving for alpha1
Liquid phase volume fraction = 0.00492589  Min(alpha1) = 0  Max(alpha1) = 1
PIMPLE: iteration 1
GAMG:  Solving for p_rgh, Initial residual = 0.000149065, Final residual = 7.03351e-07, No Iterations 1
GAMG:  Solving for p_rgh, Initial residual = 7.02894e-07, Final residual = 2.22995e-08, No Iterations 3
time step continuity errors : sum local = 2.5089e-05, global = -2.5089e-05, cumulative = -0.00160444
GAMG:  Solving for p_rgh, Initial residual = 1.45859e-05, Final residual = 6.66351e-07, No Iterations 1
GAMGPCG:  Solving for p_rgh, Initial residual = 6.66685e-07, Final residual = 3.43398e-11, No Iterations 2
time step continuity errors : sum local = 2.5089e-05, global = -2.5089e-05, cumulative = -0.00162953
****
****Pressure range: 2.38495 Pa
****Max velocity: 0.0421475 m/s
****Phase change energy: -0.0911919 W
****Volume change: -2.98559e-08 m^3/s
DILUPBiCG:  Solving for H, Initial residual = 1.52971e-05, Final residual = 7.64543e-13, No Iterations 1
DILUPBiCG:  Solving for H, Initial residual = 1.32298e-07, Final residual = 3.35858e-15, No Iterations 1
DILUPBiCG:  Solving for H, Initial residual = 1.08585e-08, Final residual = 1.13408e-15, No Iterations 1
ExecutionTime = 0.79 s  ClockTime = 1 s

Courant Number mean: 0.00746399 max: 0.0135794
Interface Courant Number mean: 1.25445e-05 max: 0.00681467
Fourier number mean: 0.10113 max: 0.249941
deltaT = 8.40336e-07
Time = 0.00602773

MULES: Solving for alpha1
Liquid phase volume fraction = 0.00492603  Min(alpha1) = 0  Max(alpha1) = 1
MULES: Solving for alpha1
Liquid phase volume fraction = 0.00492618  Min(alpha1) = 0  Max(alpha1) = 1
MULES: Solving for alpha1
Liquid phase volume fraction = 0.00492632  Min(alpha1) = 0  Max(alpha1) = 1
PIMPLE: iteration 1
GAMG:  Solving for p_rgh, Initial residual = 0.000149081, Final residual = 6.63306e-07, No Iterations 1
GAMG:  Solving for p_rgh, Initial residual = 6.62892e-07, Final residual = 2.11117e-08, No Iterations 3
time step continuity errors : sum local = 2.50902e-05, global = -2.50902e-05, cumulative = -0.00165462
GAMG:  Solving for p_rgh, Initial residual = 1.45498e-05, Final residual = 6.64203e-07, No Iterations 1
GAMGPCG:  Solving for p_rgh, Initial residual = 6.64535e-07, Final residual = 3.41786e-11, No Iterations 2
time step continuity errors : sum local = 2.50902e-05, global = -2.50902e-05, cumulative = -0.00167971
****
****Pressure range: 2.38562 Pa
****Max velocity: 0.0421512 m/s
****Phase change energy: -0.0911964 W
****Volume change: -2.98574e-08 m^3/s
DILUPBiCG:  Solving for H, Initial residual = 1.52974e-05, Final residual = 7.62465e-13, No Iterations 1
DILUPBiCG:  Solving for H, Initial residual = 1.32306e-07, Final residual = 3.36438e-15, No Iterations 1
DILUPBiCG:  Solving for H, Initial residual = 1.08647e-08, Final residual = 1.13575e-15, No Iterations 1
ExecutionTime = 0.81 s  ClockTime = 1 s

Courant Number mean: 0.00746435 max: 0.01358
Interface Courant Number mean: 1.25451e-05 max: 0.00681502
Fourier number mean: 0.10113 max: 0.249941
deltaT = 8.40336e-07
Time = 0.00602857

MULES: Solving for alpha1
Liquid phase volume fraction = 0.00492646  Min(alpha1) = 0  Max(alpha1) = 1
MULES: Solving for alpha1
Liquid phase volume fraction = 0.0049266  Min(alpha1) = 0  Max(alpha1) = 1
MULES: Solving for alpha1
Liquid phase volume fraction = 0.00492674  Min(alpha1) = 0  Max(alpha1) = 1
PIMPLE: iteration 1
GAMG:  Solving for p_rgh, Initial residual = 0.000149085, Final residual = 6.50744e-07, No Iterations 1
GAMG:  Solving for p_rgh, Initial residual = 6.50343e-07, Final residual = 2.07327e-08, No Iterations 3
time step continuity errors : sum local = 2.50915e-05, global = -2.50915e-05, cumulative = -0.0017048
GAMG:  Solving for p_rgh, Initial residual = 1.44999e-05, Final residual = 6.60924e-07, No Iterations 1
GAMGPCG:  Solving for p_rgh, Initial residual = 6.61253e-07, Final residual = 3.39795e-11, No Iterations 2
time step continuity errors : sum local = 2.50915e-05, global = -2.50915e-05, cumulative = -0.00172989
****
****Pressure range: 2.3863 Pa
****Max velocity: 0.0421549 m/s
****Phase change energy: -0.0912009 W
****Volume change: -2.98588e-08 m^3/s
DILUPBiCG:  Solving for H, Initial residual = 1.52971e-05, Final residual = 7.60453e-13, No Iterations 1
DILUPBiCG:  Solving for H, Initial residual = 1.32298e-07, Final residual = 3.36542e-15, No Iterations 1
DILUPBiCG:  Solving for H, Initial residual = 1.0861e-08, Final residual = 1.13547e-15, No Iterations 1
ExecutionTime = 0.83 s  ClockTime = 1 s

Courant Number mean: 0.00746472 max: 0.0135807
Interface Courant Number mean: 1.25457e-05 max: 0.00681535
Fourier number mean: 0.10113 max: 0.249941
deltaT = 8.40336e-07
Time = 0.00602941

MULES: Solving for alpha1
Liquid phase volume fraction = 0.00492688  Min(alpha1) = 0  Max(alpha1) = 1
MULES: Solving for alpha1
Liquid phase volume fraction = 0.00492702  Min(alpha1) = 0  Max(alpha1) = 1
MULES: Solving for alpha1
Liquid phase volume fraction = 0.00492716  Min(alpha1) = 0  Max(alpha1) = 1
PIMPLE: iteration 1
GAMG:  Solving for p_rgh, Initial residual = 0.000149056, Final residual = 6.84642e-07, No Iterations 1
GAMG:  Solving for p_rgh, Initial residual = 6.84206e-07, Final residual = 2.17328e-08, No Iterations 3
time step continuity errors : sum local = 2.50927e-05, global = -2.50927e-05, cumulative = -0.00175499
GAMG:  Solving for p_rgh, Initial residual = 1.44933e-05, Final residual = 6.60267e-07, No Iterations 1
GAMGPCG:  Solving for p_rgh, Initial residual = 6.60596e-07, Final residual = 3.39797e-11, No Iterations 2
time step continuity errors : sum local = 2.50927e-05, global = -2.50927e-05, cumulative = -0.00178008
****
****Pressure range: 2.38698 Pa
****Max velocity: 0.0421585 m/s
****Phase change energy: -0.0912053 W
****Volume change: -2.98603e-08 m^3/s
DILUPBiCG:  Solving for H, Initial residual = 1.52966e-05, Final residual = 7.58525e-13, No Iterations 1
DILUPBiCG:  Solving for H, Initial residual = 1.32296e-07, Final residual = 3.36548e-15, No Iterations 1
DILUPBiCG:  Solving for H, Initial residual = 1.08602e-08, Final residual = 1.13551e-15, No Iterations 1
ExecutionTime = 0.85 s  ClockTime = 1 s

Courant Number mean: 0.00746509 max: 0.0135814
Interface Courant Number mean: 1.25464e-05 max: 0.00681568
Fourier number mean: 0.10113 max: 0.249941
deltaT = 8.40336e-07
Time = 0.00603025

MULES: Solving for alpha1
Liquid phase volume fraction = 0.0049273  Min(alpha1) = 0  Max(alpha1) = 1
MULES: Solving for alpha1
Liquid phase volume fraction = 0.00492744  Min(alpha1) = 0  Max(alpha1) = 1
MULES: Solving for alpha1
Liquid phase volume fraction = 0.00492758  Min(alpha1) = 0  Max(alpha1) = 1
PIMPLE: iteration 1
GAMG:  Solving for p_rgh, Initial residual = 0.000148939, Final residual = 6.93004e-07, No Iterations 1
GAMG:  Solving for p_rgh, Initial residual = 6.92558e-07, Final residual = 2.19796e-08, No Iterations 3
time step continuity errors : sum local = 2.50939e-05, global = -2.50939e-05, cumulative = -0.00180517
GAMG:  Solving for p_rgh, Initial residual = 1.44978e-05, Final residual = 6.6062e-07, No Iterations 1
GAMGPCG:  Solving for p_rgh, Initial residual = 6.60949e-07, Final residual = 3.40082e-11, No Iterations 2
time step continuity errors : sum local = 2.50939e-05, global = -2.50939e-05, cumulative = -0.00183027
****
****Pressure range: 2.38766 Pa
****Max velocity: 0.0421622 m/s
****Phase change energy: -0.0912098 W
****Volume change: -2.98618e-08 m^3/s
DILUPBiCG:  Solving for H, Initial residual = 1.52965e-05, Final residual = 7.56687e-13, No Iterations 1
DILUPBiCG:  Solving for H, Initial residual = 1.3229e-07, Final residual = 3.36301e-15, No Iterations 1
DILUPBiCG:  Solving for H, Initial residual = 1.0857e-08, Final residual = 1.13488e-15, No Iterations 1
ExecutionTime = 0.87 s  ClockTime = 1 s

Courant Number mean: 0.00746545 max: 0.013582
Interface Courant Number mean: 1.2547e-05 max: 0.00681602
Fourier number mean: 0.10113 max: 0.249941
deltaT = 8.40336e-07
Time = 0.00603109

MULES: Solving for alpha1
Liquid phase volume fraction = 0.00492772  Min(alpha1) = 0  Max(alpha1) = 1
MULES: Solving for alpha1
Liquid phase volume fraction = 0.00492787  Min(alpha1) = 0  Max(alpha1) = 1
MULES: Solving for alpha1
Liquid phase volume fraction = 0.00492801  Min(alpha1) = 0  Max(alpha1) = 1
PIMPLE: iteration 1
GAMG:  Solving for p_rgh, Initial residual = 0.000148832, Final residual = 7.14954e-07, No Iterations 1
GAMG:  Solving for p_rgh, Initial residual = 7.14485e-07, Final residual = 2.26334e-08, No Iterations 3
time step continuity errors : sum local = 2.50952e-05, global = -2.50952e-05, cumulative = -0.00185536
GAMG:  Solving for p_rgh, Initial residual = 1.45286e-05, Final residual = 6.62632e-07, No Iterations 1
GAMGPCG:  Solving for p_rgh, Initial residual = 6.62963e-07, Final residual = 3.41487e-11, No Iterations 2
time step continuity errors : sum local = 2.50952e-05, global = -2.50952e-05, cumulative = -0.00188046
****
****Pressure range: 2.38831 Pa
****Max velocity: 0.0421658 m/s
****Phase change energy: -0.0912143 W
****Volume change: -2.98632e-08 m^3/s
DILUPBiCG:  Solving for H, Initial residual = 1.52969e-05, Final residual = 7.54931e-13, No Iterations 1
DILUPBiCG:  Solving for H, Initial residual = 1.32295e-07, Final residual = 3.36254e-15, No Iterations 1
DILUPBiCG:  Solving for H, Initial residual = 1.08584e-08, Final residual = 1.13516e-15, No Iterations 1
ExecutionTime = 0.89 s  ClockTime = 1 s

Courant Number mean: 0.00746582 max: 0.0135827
Interface Courant Number mean: 1.25476e-05 max: 0.00681636
Fourier number mean: 0.10113 max: 0.249941
deltaT = 8.40336e-07
Time = 0.00603193

MULES: Solving for alpha1
Liquid phase volume fraction = 0.00492815  Min(alpha1) = 0  Max(alpha1) = 1
MULES: Solving for alpha1
Liquid phase volume fraction = 0.00492829  Min(alpha1) = 0  Max(alpha1) = 1
MULES: Solving for alpha1
Liquid phase volume fraction = 0.00492843  Min(alpha1) = 0  Max(alpha1) = 1
PIMPLE: iteration 1
GAMG:  Solving for p_rgh, Initial residual = 0.000148791, Final residual = 6.99638e-07, No Iterations 1
GAMG:  Solving for p_rgh, Initial residual = 6.99185e-07, Final residual = 2.21831e-08, No Iterations 3
time step continuity errors : sum local = 2.50964e-05, global = -2.50964e-05, cumulative = -0.00190555
GAMG:  Solving for p_rgh, Initial residual = 1.45394e-05, Final residual = 6.63572e-07, No Iterations 1
GAMGPCG:  Solving for p_rgh, Initial residual = 6.63903e-07, Final residual = 3.4189e-11, No Iterations 2
time step continuity errors : sum local = 2.50964e-05, global = -2.50964e-05, cumulative = -0.00193065
****
****Pressure range: 2.38897 Pa
****Max velocity: 0.0421695 m/s
****Phase change energy: -0.0912188 W
****Volume change: -2.98647e-08 m^3/s
DILUPBiCG:  Solving for H, Initial residual = 1.52975e-05, Final residual = 7.53271e-13, No Iterations 1
DILUPBiCG:  Solving for H, Initial residual = 1.32309e-07, Final residual = 3.36585e-15, No Iterations 1
DILUPBiCG:  Solving for H, Initial residual = 1.08647e-08, Final residual = 1.13662e-15, No Iterations 1
ExecutionTime = 0.9 s  ClockTime = 1 s

Courant Number mean: 0.00746619 max: 0.0135834
Interface Courant Number mean: 1.25482e-05 max: 0.0068167
Fourier number mean: 0.10113 max: 0.249941
deltaT = 8.40336e-07
Time = 0.00603277

MULES: Solving for alpha1
Liquid phase volume fraction = 0.00492857  Min(alpha1) = 0  Max(alpha1) = 1
MULES: Solving for alpha1
Liquid phase volume fraction = 0.00492871  Min(alpha1) = 0  Max(alpha1) = 1
MULES: Solving for alpha1
Liquid phase volume fraction = 0.00492885  Min(alpha1) = 0  Max(alpha1) = 1
PIMPLE: iteration 1
GAMG:  Solving for p_rgh, Initial residual = 0.000148802, Final residual = 6.6606e-07, No Iterations 1
GAMG:  Solving for p_rgh, Initial residual = 6.65644e-07, Final residual = 2.11873e-08, No Iterations 3
time step continuity errors : sum local = 2.50976e-05, global = -2.50976e-05, cumulative = -0.00195575
GAMG:  Solving for p_rgh, Initial residual = 1.45089e-05, Final residual = 6.61825e-07, No Iterations 1
GAMGPCG:  Solving for p_rgh, Initial residual = 6.62155e-07, Final residual = 3.40577e-11, No Iterations 2
time step continuity errors : sum local = 2.50976e-05, global = -2.50976e-05, cumulative = -0.00198085
****
****Pressure range: 2.38964 Pa
****Max velocity: 0.0421732 m/s
****Phase change energy: -0.0912233 W
****Volume change: -2.98662e-08 m^3/s
DILUPBiCG:  Solving for H, Initial residual = 1.52982e-05, Final residual = 7.51761e-13, No Iterations 1
DILUPBiCG:  Solving for H, Initial residual = 1.3232e-07, Final residual = 3.36994e-15, No Iterations 1
DILUPBiCG:  Solving for H, Initial residual = 1.08691e-08, Final residual = 1.13789e-15, No Iterations 1
ExecutionTime = 0.92 s  ClockTime = 1 s

Courant Number mean: 0.00746656 max: 0.0135841
Interface Courant Number mean: 1.25488e-05 max: 0.00681704
Fourier number mean: 0.10113 max: 0.249941
deltaT = 8.40336e-07
Time = 0.00603361

MULES: Solving for alpha1
Liquid phase volume fraction = 0.00492899  Min(alpha1) = 0  Max(alpha1) = 1
MULES: Solving for alpha1
Liquid phase volume fraction = 0.00492913  Min(alpha1) = 0  Max(alpha1) = 1
MULES: Solving for alpha1
Liquid phase volume fraction = 0.00492927  Min(alpha1) = 0  Max(alpha1) = 1
PIMPLE: iteration 1
GAMG:  Solving for p_rgh, Initial residual = 0.000148807, Final residual = 6.53705e-07, No Iterations 1
GAMG:  Solving for p_rgh, Initial residual = 6.53301e-07, Final residual = 2.08155e-08, No Iterations 3
time step continuity errors : sum local = 2.50989e-05, global = -2.50989e-05, cumulative = -0.00200594
GAMG:  Solving for p_rgh, Initial residual = 1.44649e-05, Final residual = 6.58993e-07, No Iterations 1
GAMGPCG:  Solving for p_rgh, Initial residual = 6.5932e-07, Final residual = 3.38848e-11, No Iterations 2
time step continuity errors : sum local = 2.50989e-05, global = -2.50989e-05, cumulative = -0.00203104
****
****Pressure range: 2.39032 Pa
****Max velocity: 0.0421768 m/s
****Phase change energy: -0.0912278 W
****Volume change: -2.98676e-08 m^3/s
DILUPBiCG:  Solving for H, Initial residual = 1.52983e-05, Final residual = 7.50309e-13, No Iterations 1
DILUPBiCG:  Solving for H, Initial residual = 1.32318e-07, Final residual = 3.37046e-15, No Iterations 1
DILUPBiCG:  Solving for H, Initial residual = 1.08657e-08, Final residual = 1.13758e-15, No Iterations 1
ExecutionTime = 0.94 s  ClockTime = 1 s

Courant Number mean: 0.00746692 max: 0.0135847
Interface Courant Number mean: 1.25494e-05 max: 0.00681737
Fourier number mean: 0.10113 max: 0.249941
deltaT = 8.40336e-07
Time = 0.00603445

MULES: Solving for alpha1
Liquid phase volume fraction = 0.00492942  Min(alpha1) = 0  Max(alpha1) = 1
MULES: Solving for alpha1
Liquid phase volume fraction = 0.00492956  Min(alpha1) = 0  Max(alpha1) = 1
MULES: Solving for alpha1
Liquid phase volume fraction = 0.0049297  Min(alpha1) = 0  Max(alpha1) = 1
PIMPLE: iteration 1
GAMG:  Solving for p_rgh, Initial residual = 0.000148779, Final residual = 6.79015e-07, No Iterations 1
GAMG:  Solving for p_rgh, Initial residual = 6.78585e-07, Final residual = 2.15612e-08, No Iterations 3
time step continuity errors : sum local = 2.51001e-05, global = -2.51001e-05, cumulative = -0.00205614
GAMG:  Solving for p_rgh, Initial residual = 1.44535e-05, Final residual = 6.58122e-07, No Iterations 1
GAMGPCG:  Solving for p_rgh, Initial residual = 6.58448e-07, Final residual = 3.3863e-11, No Iterations 2
time step continuity errors : sum local = 2.51001e-05, global = -2.51001e-05, cumulative = -0.00208124
****
****Pressure range: 2.391 Pa
****Max velocity: 0.0421804 m/s
****Phase change energy: -0.0912322 W
****Volume change: -2.98691e-08 m^3/s
DILUPBiCG:  Solving for H, Initial residual = 1.52982e-05, Final residual = 7.48903e-13, No Iterations 1
DILUPBiCG:  Solving for H, Initial residual = 1.32319e-07, Final residual = 3.36958e-15, No Iterations 1
DILUPBiCG:  Solving for H, Initial residual = 1.08634e-08, Final residual = 1.13725e-15, No Iterations 1
ExecutionTime = 0.96 s  ClockTime = 1 s

Courant Number mean: 0.00746729 max: 0.0135854
Interface Courant Number mean: 1.255e-05 max: 0.0068177
Fourier number mean: 0.10113 max: 0.249941
deltaT = 8.40336e-07
Time = 0.00603529

MULES: Solving for alpha1
Liquid phase volume fraction = 0.00492984  Min(alpha1) = 0  Max(alpha1) = 1
MULES: Solving for alpha1
Liquid phase volume fraction = 0.00492998  Min(alpha1) = 0  Max(alpha1) = 1
MULES: Solving for alpha1
Liquid phase volume fraction = 0.00493012  Min(alpha1) = 0  Max(alpha1) = 1
PIMPLE: iteration 1
GAMG:  Solving for p_rgh, Initial residual = 0.000148679, Final residual = 6.9119e-07, No Iterations 1
GAMG:  Solving for p_rgh, Initial residual = 6.90747e-07, Final residual = 2.19207e-08, No Iterations 3
time step continuity errors : sum local = 2.51013e-05, global = -2.51013e-05, cumulative = -0.00210635
GAMG:  Solving for p_rgh, Initial residual = 1.44581e-05, Final residual = 6.58471e-07, No Iterations 1
GAMGPCG:  Solving for p_rgh, Initial residual = 6.58797e-07, Final residual = 3.38949e-11, No Iterations 2
time step continuity errors : sum local = 2.51013e-05, global = -2.51013e-05, cumulative = -0.00213145
****
****Pressure range: 2.39167 Pa
****Max velocity: 0.0421841 m/s
****Phase change energy: -0.0912367 W
****Volume change: -2.98706e-08 m^3/s
DILUPBiCG:  Solving for H, Initial residual = 1.52984e-05, Final residual = 7.47541e-13, No Iterations 1
DILUPBiCG:  Solving for H, Initial residual = 1.32318e-07, Final residual = 3.36664e-15, No Iterations 1
DILUPBiCG:  Solving for H, Initial residual = 1.08595e-08, Final residual = 1.13643e-15, No Iterations 1
ExecutionTime = 0.98 s  ClockTime = 1 s

Courant Number mean: 0.00746765 max: 0.0135861
Interface Courant Number mean: 1.25507e-05 max: 0.00681804
Fourier number mean: 0.10113 max: 0.249941
deltaT = 8.40336e-07
Time = 0.00603613

MULES: Solving for alpha1
Liquid phase volume fraction = 0.00493026  Min(alpha1) = 0  Max(alpha1) = 1
MULES: Solving for alpha1
Liquid phase volume fraction = 0.0049304  Min(alpha1) = 0  Max(alpha1) = 1
MULES: Solving for alpha1
Liquid phase volume fraction = 0.00493054  Min(alpha1) = 0  Max(alpha1) = 1
PIMPLE: iteration 1
GAMG:  Solving for p_rgh, Initial residual = 0.000148583, Final residual = 7.09979e-07, No Iterations 1
GAMG:  Solving for p_rgh, Initial residual = 7.09515e-07, Final residual = 2.24804e-08, No Iterations 3
time step continuity errors : sum local = 2.51026e-05, global = -2.51025e-05, cumulative = -0.00215655
GAMG:  Solving for p_rgh, Initial residual = 1.44854e-05, Final residual = 6.60286e-07, No Iterations 1
GAMGPCG:  Solving for p_rgh, Initial residual = 6.60614e-07, Final residual = 3.40199e-11, No Iterations 2
time step continuity errors : sum local = 2.51025e-05, global = -2.51025e-05, cumulative = -0.00218165
****
****Pressure range: 2.39233 Pa
****Max velocity: 0.0421877 m/s
****Phase change energy: -0.0912412 W
****Volume change: -2.9872e-08 m^3/s
DILUPBiCG:  Solving for H, Initial residual = 1.5299e-05, Final residual = 7.46255e-13, No Iterations 1
DILUPBiCG:  Solving for H, Initial residual = 1.32326e-07, Final residual = 3.36562e-15, No Iterations 1
DILUPBiCG:  Solving for H, Initial residual = 1.08602e-08, Final residual = 1.1365e-15, No Iterations 1
ExecutionTime = 0.99 s  ClockTime = 1 s

Courant Number mean: 0.00746802 max: 0.0135867
Interface Courant Number mean: 1.25513e-05 max: 0.00681838
Fourier number mean: 0.10113 max: 0.249941
deltaT = 8.40336e-07
Time = 0.00603697

MULES: Solving for alpha1
Liquid phase volume fraction = 0.00493068  Min(alpha1) = 0  Max(alpha1) = 1
MULES: Solving for alpha1
Liquid phase volume fraction = 0.00493082  Min(alpha1) = 0  Max(alpha1) = 1
MULES: Solving for alpha1
Liquid phase volume fraction = 0.00493097  Min(alpha1) = 0  Max(alpha1) = 1
PIMPLE: iteration 1
GAMG:  Solving for p_rgh, Initial residual = 0.000148541, Final residual = 6.96211e-07, No Iterations 1
GAMG:  Solving for p_rgh, Initial residual = 6.95763e-07, Final residual = 2.20758e-08, No Iterations 3
time step continuity errors : sum local = 2.51038e-05, global = -2.51038e-05, cumulative = -0.00220676
GAMG:  Solving for p_rgh, Initial residual = 1.44947e-05, Final residual = 6.61127e-07, No Iterations 1
GAMGPCG:  Solving for p_rgh, Initial residual = 6.61456e-07, Final residual = 3.40564e-11, No Iterations 2
time step continuity errors : sum local = 2.51038e-05, global = -2.51038e-05, cumulative = -0.00223186
****
****Pressure range: 2.39299 Pa
****Max velocity: 0.0421914 m/s
****Phase change energy: -0.0912456 W
****Volume change: -2.98735e-08 m^3/s
DILUPBiCG:  Solving for H, Initial residual = 1.52998e-05, Final residual = 7.45043e-13, No Iterations 1
DILUPBiCG:  Solving for H, Initial residual = 1.32341e-07, Final residual = 3.3679e-15, No Iterations 1
DILUPBiCG:  Solving for H, Initial residual = 1.08651e-08, Final residual = 1.1376e-15, No Iterations 1
ExecutionTime = 1.01 s  ClockTime = 1 s

Courant Number mean: 0.00746839 max: 0.0135874
Interface Courant Number mean: 1.25519e-05 max: 0.00681871
Fourier number mean: 0.10113 max: 0.249941
deltaT = 8.40336e-07
Time = 0.00603782

MULES: Solving for alpha1
Liquid phase volume fraction = 0.00493111  Min(alpha1) = 0  Max(alpha1) = 1
MULES: Solving for alpha1
Liquid phase volume fraction = 0.00493125  Min(alpha1) = 0  Max(alpha1) = 1
MULES: Solving for alpha1
Liquid phase volume fraction = 0.00493139  Min(alpha1) = 0  Max(alpha1) = 1
PIMPLE: iteration 1
GAMG:  Solving for p_rgh, Initial residual = 0.000148547, Final residual = 6.67387e-07, No Iterations 1
GAMG:  Solving for p_rgh, Initial residual = 6.66969e-07, Final residual = 2.12211e-08, No Iterations 3
time step continuity errors : sum local = 2.5105e-05, global = -2.5105e-05, cumulative = -0.00225696
GAMG:  Solving for p_rgh, Initial residual = 1.44685e-05, Final residual = 6.59654e-07, No Iterations 1
GAMGPCG:  Solving for p_rgh, Initial residual = 6.59981e-07, Final residual = 3.39458e-11, No Iterations 2
time step continuity errors : sum local = 2.5105e-05, global = -2.5105e-05, cumulative = -0.00228207
****
****Pressure range: 2.39366 Pa
****Max velocity: 0.042195 m/s
****Phase change energy: -0.0912501 W
****Volume change: -2.9875e-08 m^3/s
DILUPBiCG:  Solving for H, Initial residual = 1.53008e-05, Final residual = 7.43897e-13, No Iterations 1
DILUPBiCG:  Solving for H, Initial residual = 1.32355e-07, Final residual = 3.37106e-15, No Iterations 1
DILUPBiCG:  Solving for H, Initial residual = 1.08686e-08, Final residual = 1.1386e-15, No Iterations 1
ExecutionTime = 1.03 s  ClockTime = 1 s

Courant Number mean: 0.00746875 max: 0.0135881
Interface Courant Number mean: 1.25525e-05 max: 0.00681905
Fourier number mean: 0.10113 max: 0.249941
deltaT = 8.40336e-07
Time = 0.00603866

MULES: Solving for alpha1
Liquid phase volume fraction = 0.00493153  Min(alpha1) = 0  Max(alpha1) = 1
MULES: Solving for alpha1
Liquid phase volume fraction = 0.00493167  Min(alpha1) = 0  Max(alpha1) = 1
MULES: Solving for alpha1
Liquid phase volume fraction = 0.00493181  Min(alpha1) = 0  Max(alpha1) = 1
PIMPLE: iteration 1
GAMG:  Solving for p_rgh, Initial residual = 0.00014855, Final residual = 6.55452e-07, No Iterations 1
GAMG:  Solving for p_rgh, Initial residual = 6.55047e-07, Final residual = 2.08626e-08, No Iterations 3
time step continuity errors : sum local = 2.51062e-05, global = -2.51062e-05, cumulative = -0.00230718
GAMG:  Solving for p_rgh, Initial residual = 1.44291e-05, Final residual = 6.57149e-07, No Iterations 1
GAMGPCG:  Solving for p_rgh, Initial residual = 6.57474e-07, Final residual = 3.37923e-11, No Iterations 2
time step continuity errors : sum local = 2.51062e-05, global = -2.51062e-05, cumulative = -0.00233228
****
****Pressure range: 2.39434 Pa
****Max velocity: 0.0421987 m/s
****Phase change energy: -0.0912546 W
****Volume change: -2.98764e-08 m^3/s
DILUPBiCG:  Solving for H, Initial residual = 1.53012e-05, Final residual = 7.4283e-13, No Iterations 1
DILUPBiCG:  Solving for H, Initial residual = 1.32358e-07, Final residual = 3.37141e-15, No Iterations 1
DILUPBiCG:  Solving for H, Initial residual = 1.08659e-08, Final residual = 1.13834e-15, No Iterations 1
ExecutionTime = 1.05 s  ClockTime = 1 s

Courant Number mean: 0.00746912 max: 0.0135887
Interface Courant Number mean: 1.25531e-05 max: 0.00681938
Fourier number mean: 0.10113 max: 0.249941
deltaT = 8.40336e-07
Time = 0.0060395

MULES: Solving for alpha1
Liquid phase volume fraction = 0.00493195  Min(alpha1) = 0  Max(alpha1) = 1
MULES: Solving for alpha1
Liquid phase volume fraction = 0.00493209  Min(alpha1) = 0  Max(alpha1) = 1
MULES: Solving for alpha1
Liquid phase volume fraction = 0.00493223  Min(alpha1) = 0  Max(alpha1) = 1
PIMPLE: iteration 1
GAMG:  Solving for p_rgh, Initial residual = 0.000148521, Final residual = 6.75064e-07, No Iterations 1
GAMG:  Solving for p_rgh, Initial residual = 6.74639e-07, Final residual = 2.14395e-08, No Iterations 3
time step continuity errors : sum local = 2.51075e-05, global = -2.51075e-05, cumulative = -0.00235739
GAMG:  Solving for p_rgh, Initial residual = 1.44154e-05, Final residual = 6.56167e-07, No Iterations 1
GAMGPCG:  Solving for p_rgh, Initial residual = 6.56491e-07, Final residual = 3.37577e-11, No Iterations 2
time step continuity errors : sum local = 2.51075e-05, global = -2.51075e-05, cumulative = -0.0023825
****
****Pressure range: 2.39502 Pa
****Max velocity: 0.0422023 m/s
****Phase change energy: -0.091259 W
****Volume change: -2.98779e-08 m^3/s
DILUPBiCG:  Solving for H, Initial residual = 1.53013e-05, Final residual = 7.41793e-13, No Iterations 1
DILUPBiCG:  Solving for H, Initial residual = 1.32361e-07, Final residual = 3.37009e-15, No Iterations 1
DILUPBiCG:  Solving for H, Initial residual = 1.0863e-08, Final residual = 1.13783e-15, No Iterations 1
ExecutionTime = 1.07 s  ClockTime = 1 s

Courant Number mean: 0.00746948 max: 0.0135894
Interface Courant Number mean: 1.25537e-05 max: 0.00681971
Fourier number mean: 0.10113 max: 0.249941
deltaT = 8.40336e-07
Time = 0.00604034

MULES: Solving for alpha1
Liquid phase volume fraction = 0.00493238  Min(alpha1) = 0  Max(alpha1) = 1
MULES: Solving for alpha1
Liquid phase volume fraction = 0.00493252  Min(alpha1) = 0  Max(alpha1) = 1
MULES: Solving for alpha1
Liquid phase volume fraction = 0.00493266  Min(alpha1) = 0  Max(alpha1) = 1
PIMPLE: iteration 1
GAMG:  Solving for p_rgh, Initial residual = 0.000148432, Final residual = 6.8934e-07, No Iterations 1
[...]
GAMG:  Solving for p_rgh, Initial residual = 6.58543e-07, Final residual = 2.08996e-08, No Iterations 3
time step continuity errors : sum local = 2.52912e-05, global = -2.52912e-05, cumulative = -0.0100181
GAMG:  Solving for p_rgh, Initial residual = 1.3813e-05, Final residual = 6.29806e-07, No Iterations 1
GAMGPCG:  Solving for p_rgh, Initial residual = 6.30104e-07, Final residual = 3.24009e-11, No Iterations 2
time step continuity errors : sum local = 2.52912e-05, global = -2.52912e-05, cumulative = -0.0100434
****
****Pressure range: 2.49667 Pa
****Max velocity: 0.0427448 m/s
****Phase change energy: -0.091927 W
****Volume change: -3.00966e-08 m^3/s
DILUPBiCG:  Solving for H, Initial residual = 1.52204e-05, Final residual = 6.76202e-13, No Iterations 1
DILUPBiCG:  Solving for H, Initial residual = 1.32068e-07, Final residual = 3.25601e-15, No Iterations 1
DILUPBiCG:  Solving for H, Initial residual = 1.07045e-08, Final residual = 1.11075e-15, No Iterations 1
ExecutionTime = 4.27 s  ClockTime = 5 s

Courant Number mean: 0.00752415 max: 0.0136885
Interface Courant Number mean: 1.26456e-05 max: 0.00686944
Fourier number mean: 0.101129 max: 0.249941
deltaT = 8.40336e-07
Time = 0.00616807

MULES: Solving for alpha1
Liquid phase volume fraction = 0.00499689  Min(alpha1) = 0  Max(alpha1) = 1
MULES: Solving for alpha1
Liquid phase volume fraction = 0.00499703  Min(alpha1) = 0  Max(alpha1) = 1
MULES: Solving for alpha1
Liquid phase volume fraction = 0.00499718  Min(alpha1) = 0  Max(alpha1) = 1
PIMPLE: iteration 1
GAMG:  Solving for p_rgh, Initial residual = 0.000143184, Final residual = 6.52867e-07, No Iterations 1
GAMG:  Solving for p_rgh, Initial residual = 6.52469e-07, Final residual = 2.07197e-08, No Iterations 3
time step continuity errors : sum local = 2.52924e-05, global = -2.52924e-05, cumulative = -0.0100687
GAMG:  Solving for p_rgh, Initial residual = 1.38082e-05, Final residual = 6.29611e-07, No Iterations 1
GAMGPCG:  Solving for p_rgh, Initial residual = 6.2991e-07, Final residual = 3.23849e-11, No Iterations 2
time step continuity errors : sum local = 2.52924e-05, global = -2.52924e-05, cumulative = -0.010094
****
****Pressure range: 2.49734 Pa
****Max velocity: 0.0427483 m/s
****Phase change energy: -0.0919313 W
****Volume change: -3.0098e-08 m^3/s
DILUPBiCG:  Solving for H, Initial residual = 1.52194e-05, Final residual = 6.75938e-13, No Iterations 1
DILUPBiCG:  Solving for H, Initial residual = 1.3206e-07, Final residual = 3.25593e-15, No Iterations 1
DILUPBiCG:  Solving for H, Initial residual = 1.07043e-08, Final residual = 1.11081e-15, No Iterations 1
ExecutionTime = 4.28 s  ClockTime = 5 s

Courant Number mean: 0.00752451 max: 0.0136891
Interface Courant Number mean: 1.26462e-05 max: 0.00686976
Fourier number mean: 0.101129 max: 0.249941
deltaT = 8.40336e-07
Time = 0.00616891

MULES: Solving for alpha1
Liquid phase volume fraction = 0.00499732  Min(alpha1) = 0  Max(alpha1) = 1
MULES: Solving for alpha1
Liquid phase volume fraction = 0.00499746  Min(alpha1) = 0  Max(alpha1) = 1
MULES: Solving for alpha1
Liquid phase volume fraction = 0.0049976  Min(alpha1) = 0  Max(alpha1) = 1
PIMPLE: iteration 1
GAMG:  Solving for p_rgh, Initial residual = 0.000143165, Final residual = 6.47752e-07, No Iterations 1
GAMG:  Solving for p_rgh, Initial residual = 6.47359e-07, Final residual = 2.05672e-08, No Iterations 3
time step continuity errors : sum local = 2.52936e-05, global = -2.52936e-05, cumulative = -0.0101193
GAMG:  Solving for p_rgh, Initial residual = 1.37973e-05, Final residual = 6.28999e-07, No Iterations 1
GAMGPCG:  Solving for p_rgh, Initial residual = 6.29297e-07, Final residual = 3.23456e-11, No Iterations 2
time step continuity errors : sum local = 2.52936e-05, global = -2.52936e-05, cumulative = -0.0101446
****
****Pressure range: 2.49801 Pa
****Max velocity: 0.0427519 m/s
****Phase change energy: -0.0919357 W
****Volume change: -3.00994e-08 m^3/s
DILUPBiCG:  Solving for H, Initial residual = 1.52183e-05, Final residual = 6.75674e-13, No Iterations 1
DILUPBiCG:  Solving for H, Initial residual = 1.32051e-07, Final residual = 3.25561e-15, No Iterations 1
DILUPBiCG:  Solving for H, Initial residual = 1.07032e-08, Final residual = 1.1107e-15, No Iterations 1
ExecutionTime = 4.3 s  ClockTime = 5 s

Courant Number mean: 0.00752486 max: 0.0136898
Interface Courant Number mean: 1.26468e-05 max: 0.00687009
Fourier number mean: 0.101129 max: 0.249941
deltaT = 8.40336e-07
Time = 0.00616975

MULES: Solving for alpha1
Liquid phase volume fraction = 0.00499774  Min(alpha1) = 0  Max(alpha1) = 1
MULES: Solving for alpha1
Liquid phase volume fraction = 0.00499789  Min(alpha1) = 0  Max(alpha1) = 1
MULES: Solving for alpha1
Liquid phase volume fraction = 0.00499803  Min(alpha1) = 0  Max(alpha1) = 1
PIMPLE: iteration 1
GAMG:  Solving for p_rgh, Initial residual = 0.000143139, Final residual = 6.4859e-07, No Iterations 1
GAMG:  Solving for p_rgh, Initial residual = 6.48197e-07, Final residual = 2.05906e-08, No Iterations 3
time step continuity errors : sum local = 2.52948e-05, global = -2.52948e-05, cumulative = -0.0101699
GAMG:  Solving for p_rgh, Initial residual = 1.3788e-05, Final residual = 6.28449e-07, No Iterations 1
GAMGPCG:  Solving for p_rgh, Initial residual = 6.28747e-07, Final residual = 3.23153e-11, No Iterations 2
time step continuity errors : sum local = 2.52948e-05, global = -2.52948e-05, cumulative = -0.0101952
****
****Pressure range: 2.49868 Pa
****Max velocity: 0.0427554 m/s
****Phase change energy: -0.09194 W
****Volume change: -3.01008e-08 m^3/s
DILUPBiCG:  Solving for H, Initial residual = 1.52171e-05, Final residual = 6.75409e-13, No Iterations 1
DILUPBiCG:  Solving for H, Initial residual = 1.3204e-07, Final residual = 3.25454e-15, No Iterations 1
DILUPBiCG:  Solving for H, Initial residual = 1.0701e-08, Final residual = 1.11032e-15, No Iterations 1
ExecutionTime = 4.32 s  ClockTime = 5 s

Courant Number mean: 0.00752522 max: 0.0136904
Interface Courant Number mean: 1.26474e-05 max: 0.00687041
Fourier number mean: 0.101129 max: 0.249941
deltaT = 8.40336e-07
Time = 0.00617059

MULES: Solving for alpha1
Liquid phase volume fraction = 0.00499817  Min(alpha1) = 0  Max(alpha1) = 1
MULES: Solving for alpha1
Liquid phase volume fraction = 0.00499831  Min(alpha1) = 0  Max(alpha1) = 1
MULES: Solving for alpha1
Liquid phase volume fraction = 0.00499845  Min(alpha1) = 0  Max(alpha1) = 1
PIMPLE: iteration 1
GAMG:  Solving for p_rgh, Initial residual = 0.000143101, Final residual = 6.54324e-07, No Iterations 1
GAMG:  Solving for p_rgh, Initial residual = 6.53925e-07, Final residual = 2.07596e-08, No Iterations 3
time step continuity errors : sum local = 2.5296e-05, global = -2.5296e-05, cumulative = -0.0102204
GAMG:  Solving for p_rgh, Initial residual = 1.37862e-05, Final residual = 6.28374e-07, No Iterations 1
GAMGPCG:  Solving for p_rgh, Initial residual = 6.28671e-07, Final residual = 3.23171e-11, No Iterations 2
time step continuity errors : sum local = 2.5296e-05, global = -2.5296e-05, cumulative = -0.0102457
****
****Pressure range: 2.49935 Pa
****Max velocity: 0.0427589 m/s
****Phase change energy: -0.0919444 W
****Volume change: -3.01023e-08 m^3/s
DILUPBiCG:  Solving for H, Initial residual = 1.52159e-05, Final residual = 6.75145e-13, No Iterations 1
DILUPBiCG:  Solving for H, Initial residual = 1.32028e-07, Final residual = 3.25299e-15, No Iterations 1
DILUPBiCG:  Solving for H, Initial residual = 1.06985e-08, Final residual = 1.10986e-15, No Iterations 1
ExecutionTime = 4.34 s  ClockTime = 5 s

Courant Number mean: 0.00752557 max: 0.0136911
Interface Courant Number mean: 1.2648e-05 max: 0.00687073
Fourier number mean: 0.101129 max: 0.249941
deltaT = 8.40336e-07
Time = 0.00617143

MULES: Solving for alpha1
Liquid phase volume fraction = 0.0049986  Min(alpha1) = 0  Max(alpha1) = 1
MULES: Solving for alpha1
Liquid phase volume fraction = 0.00499874  Min(alpha1) = 0  Max(alpha1) = 1
MULES: Solving for alpha1
Liquid phase volume fraction = 0.00499888  Min(alpha1) = 0  Max(alpha1) = 1
PIMPLE: iteration 1
GAMG:  Solving for p_rgh, Initial residual = 0.000143056, Final residual = 6.58938e-07, No Iterations 1
GAMG:  Solving for p_rgh, Initial residual = 6.58534e-07, Final residual = 2.08967e-08, No Iterations 3
time step continuity errors : sum local = 2.52972e-05, global = -2.52972e-05, cumulative = -0.010271
GAMG:  Solving for p_rgh, Initial residual = 1.37901e-05, Final residual = 6.287e-07, No Iterations 1
GAMGPCG:  Solving for p_rgh, Initial residual = 6.28998e-07, Final residual = 3.23412e-11, No Iterations 2
time step continuity errors : sum local = 2.52972e-05, global = -2.52972e-05, cumulative = -0.0102963
****
****Pressure range: 2.50002 Pa
****Max velocity: 0.0427624 m/s
****Phase change energy: -0.0919487 W
****Volume change: -3.01037e-08 m^3/s
DILUPBiCG:  Solving for H, Initial residual = 1.52148e-05, Final residual = 6.74883e-13, No Iterations 1
DILUPBiCG:  Solving for H, Initial residual = 1.32018e-07, Final residual = 3.25169e-15, No Iterations 1
DILUPBiCG:  Solving for H, Initial residual = 1.0697e-08, Final residual = 1.10956e-15, No Iterations 1
ExecutionTime = 4.36 s  ClockTime = 5 s

Courant Number mean: 0.00752593 max: 0.0136917
Interface Courant Number mean: 1.26486e-05 max: 0.00687106
Fourier number mean: 0.101129 max: 0.249941
deltaT = 8.40336e-07
Time = 0.00617227

MULES: Solving for alpha1
Liquid phase volume fraction = 0.00499902  Min(alpha1) = 0  Max(alpha1) = 1
MULES: Solving for alpha1
Liquid phase volume fraction = 0.00499916  Min(alpha1) = 0  Max(alpha1) = 1
MULES: Solving for alpha1
Liquid phase volume fraction = 0.00499931  Min(alpha1) = 0  Max(alpha1) = 1
PIMPLE: iteration 1
GAMG:  Solving for p_rgh, Initial residual = 0.000143019, Final residual = 6.5773e-07, No Iterations 1
GAMG:  Solving for p_rgh, Initial residual = 6.57328e-07, Final residual = 2.08617e-08, No Iterations 3
time step continuity errors : sum local = 2.52984e-05, global = -2.52984e-05, cumulative = -0.0103216
GAMG:  Solving for p_rgh, Initial residual = 1.37925e-05, Final residual = 6.28956e-07, No Iterations 1
GAMGPCG:  Solving for p_rgh, Initial residual = 6.29254e-07, Final residual = 3.2356e-11, No Iterations 2
time step continuity errors : sum local = 2.52984e-05, global = -2.52984e-05, cumulative = -0.0103469
****
****Pressure range: 2.50069 Pa
****Max velocity: 0.0427659 m/s
****Phase change energy: -0.0919531 W
****Volume change: -3.01051e-08 m^3/s
DILUPBiCG:  Solving for H, Initial residual = 1.52137e-05, Final residual = 6.74624e-13, No Iterations 1
DILUPBiCG:  Solving for H, Initial residual = 1.3201e-07, Final residual = 3.25111e-15, No Iterations 1
DILUPBiCG:  Solving for H, Initial residual = 1.06966e-08, Final residual = 1.10952e-15, No Iterations 1
ExecutionTime = 4.38 s  ClockTime = 5 s

Courant Number mean: 0.00752629 max: 0.0136923
Interface Courant Number mean: 1.26492e-05 max: 0.00687138
Fourier number mean: 0.101129 max: 0.249941
deltaT = 8.40336e-07
Time = 0.00617311

MULES: Solving for alpha1
Liquid phase volume fraction = 0.00499945  Min(alpha1) = 0  Max(alpha1) = 1
MULES: Solving for alpha1
Liquid phase volume fraction = 0.00499959  Min(alpha1) = 0  Max(alpha1) = 1
MULES: Solving for alpha1
Liquid phase volume fraction = 0.00499973  Min(alpha1) = 0  Max(alpha1) = 1
PIMPLE: iteration 1
GAMG:  Solving for p_rgh, Initial residual = 0.000142994, Final residual = 6.51885e-07, No Iterations 1
GAMG:  Solving for p_rgh, Initial residual = 6.51489e-07, Final residual = 2.06887e-08, No Iterations 3
time step continuity errors : sum local = 2.52996e-05, global = -2.52996e-05, cumulative = -0.0103722
GAMG:  Solving for p_rgh, Initial residual = 1.37875e-05, Final residual = 6.28751e-07, No Iterations 1
GAMGPCG:  Solving for p_rgh, Initial residual = 6.29049e-07, Final residual = 3.23397e-11, No Iterations 2
time step continuity errors : sum local = 2.52996e-05, global = -2.52996e-05, cumulative = -0.0103975
****
****Pressure range: 2.50135 Pa
****Max velocity: 0.0427695 m/s
****Phase change energy: -0.0919574 W
****Volume change: -3.01065e-08 m^3/s
DILUPBiCG:  Solving for H, Initial residual = 1.52127e-05, Final residual = 6.74368e-13, No Iterations 1
DILUPBiCG:  Solving for H, Initial residual = 1.32002e-07, Final residual = 3.25101e-15, No Iterations 1
DILUPBiCG:  Solving for H, Initial residual = 1.06963e-08, Final residual = 1.10956e-15, No Iterations 1
ExecutionTime = 4.4 s  ClockTime = 5 s

Courant Number mean: 0.00752664 max: 0.013693
Interface Courant Number mean: 1.26498e-05 max: 0.0068717
Fourier number mean: 0.101129 max: 0.249941
deltaT = 8.40336e-07
Time = 0.00617395

MULES: Solving for alpha1
Liquid phase volume fraction = 0.00499987  Min(alpha1) = 0  Max(alpha1) = 1
MULES: Solving for alpha1
Liquid phase volume fraction = 0.00500002  Min(alpha1) = 0  Max(alpha1) = 1
MULES: Solving for alpha1
Liquid phase volume fraction = 0.00500016  Min(alpha1) = 0  Max(alpha1) = 1
PIMPLE: iteration 1
GAMG:  Solving for p_rgh, Initial residual = 0.000142975, Final residual = 6.47127e-07, No Iterations 1
GAMG:  Solving for p_rgh, Initial residual = 6.46735e-07, Final residual = 2.05467e-08, No Iterations 3
time step continuity errors : sum local = 2.53008e-05, global = -2.53008e-05, cumulative = -0.0104228
GAMG:  Solving for p_rgh, Initial residual = 1.3777e-05, Final residual = 6.28158e-07, No Iterations 1
GAMGPCG:  Solving for p_rgh, Initial residual = 6.28455e-07, Final residual = 3.23018e-11, No Iterations 2
time step continuity errors : sum local = 2.53008e-05, global = -2.53008e-05, cumulative = -0.0104481
****
****Pressure range: 2.50203 Pa
****Max velocity: 0.042773 m/s
****Phase change energy: -0.0919618 W
****Volume change: -3.0108e-08 m^3/s
DILUPBiCG:  Solving for H, Initial residual = 1.52116e-05, Final residual = 6.74112e-13, No Iterations 1
DILUPBiCG:  Solving for H, Initial residual = 1.31993e-07, Final residual = 3.25065e-15, No Iterations 1
DILUPBiCG:  Solving for H, Initial residual = 1.06952e-08, Final residual = 1.10944e-15, No Iterations 1
ExecutionTime = 4.42 s  ClockTime = 5 s

Courant Number mean: 0.007527 max: 0.0136936
Interface Courant Number mean: 1.26504e-05 max: 0.00687203
Fourier number mean: 0.101129 max: 0.249941
deltaT = 8.40336e-07
Time = 0.00617479

MULES: Solving for alpha1
Liquid phase volume fraction = 0.0050003  Min(alpha1) = 0  Max(alpha1) = 1
MULES: Solving for alpha1
Liquid phase volume fraction = 0.00500044  Min(alpha1) = 0  Max(alpha1) = 1
MULES: Solving for alpha1
Liquid phase volume fraction = 0.00500058  Min(alpha1) = 0  Max(alpha1) = 1
PIMPLE: iteration 1
GAMG:  Solving for p_rgh, Initial residual = 0.000142949, Final residual = 6.48088e-07, No Iterations 1
GAMG:  Solving for p_rgh, Initial residual = 6.47695e-07, Final residual = 2.05738e-08, No Iterations 3
time step continuity errors : sum local = 2.5302e-05, global = -2.5302e-05, cumulative = -0.0104734
GAMG:  Solving for p_rgh, Initial residual = 1.37682e-05, Final residual = 6.27639e-07, No Iterations 1
GAMGPCG:  Solving for p_rgh, Initial residual = 6.27935e-07, Final residual = 3.22733e-11, No Iterations 2
time step continuity errors : sum local = 2.5302e-05, global = -2.5302e-05, cumulative = -0.0104987
****
****Pressure range: 2.5027 Pa
****Max velocity: 0.0427765 m/s
****Phase change energy: -0.0919661 W
****Volume change: -3.01094e-08 m^3/s
DILUPBiCG:  Solving for H, Initial residual = 1.52104e-05, Final residual = 6.73853e-13, No Iterations 1
DILUPBiCG:  Solving for H, Initial residual = 1.31981e-07, Final residual = 3.24958e-15, No Iterations 1
DILUPBiCG:  Solving for H, Initial residual = 1.06929e-08, Final residual = 1.10907e-15, No Iterations 1
ExecutionTime = 4.44 s  ClockTime = 5 s

Courant Number mean: 0.00752735 max: 0.0136943
Interface Courant Number mean: 1.2651e-05 max: 0.00687235
Fourier number mean: 0.101129 max: 0.249941
deltaT = 8.40336e-07
Time = 0.00617563

MULES: Solving for alpha1
Liquid phase volume fraction = 0.00500073  Min(alpha1) = 0  Max(alpha1) = 1
MULES: Solving for alpha1
Liquid phase volume fraction = 0.00500087  Min(alpha1) = 0  Max(alpha1) = 1
MULES: Solving for alpha1
Liquid phase volume fraction = 0.00500101  Min(alpha1) = 0  Max(alpha1) = 1
PIMPLE: iteration 1
GAMG:  Solving for p_rgh, Initial residual = 0.00014291, Final residual = 6.53589e-07, No Iterations 1
GAMG:  Solving for p_rgh, Initial residual = 6.53191e-07, Final residual = 2.0736e-08, No Iterations 3
time step continuity errors : sum local = 2.53032e-05, global = -2.53032e-05, cumulative = -0.010524
GAMG:  Solving for p_rgh, Initial residual = 1.37665e-05, Final residual = 6.27575e-07, No Iterations 1
GAMGPCG:  Solving for p_rgh, Initial residual = 6.27872e-07, Final residual = 3.22756e-11, No Iterations 2
time step continuity errors : sum local = 2.53032e-05, global = -2.53032e-05, cumulative = -0.0105493
****
****Pressure range: 2.50337 Pa
****Max velocity: 0.04278 m/s
****Phase change energy: -0.0919704 W
****Volume change: -3.01108e-08 m^3/s
DILUPBiCG:  Solving for H, Initial residual = 1.52091e-05, Final residual = 6.73593e-13, No Iterations 1
DILUPBiCG:  Solving for H, Initial residual = 1.31969e-07, Final residual = 3.24806e-15, No Iterations 1
DILUPBiCG:  Solving for H, Initial residual = 1.06905e-08, Final residual = 1.10862e-15, No Iterations 1
ExecutionTime = 4.45 s  ClockTime = 5 s

Courant Number mean: 0.00752771 max: 0.0136949
Interface Courant Number mean: 1.26516e-05 max: 0.00687267
Fourier number mean: 0.101129 max: 0.249941
deltaT = 8.40336e-07
Time = 0.00617647

MULES: Solving for alpha1
Liquid phase volume fraction = 0.00500115  Min(alpha1) = 0  Max(alpha1) = 1
MULES: Solving for alpha1
Liquid phase volume fraction = 0.00500129  Min(alpha1) = 0  Max(alpha1) = 1
MULES: Solving for alpha1
Liquid phase volume fraction = 0.00500144  Min(alpha1) = 0  Max(alpha1) = 1
PIMPLE: iteration 1
GAMG:  Solving for p_rgh, Initial residual = 0.000142867, Final residual = 6.57856e-07, No Iterations 1
GAMG:  Solving for p_rgh, Initial residual = 6.57454e-07, Final residual = 2.08628e-08, No Iterations 3
time step continuity errors : sum local = 2.53044e-05, global = -2.53044e-05, cumulative = -0.0105747
GAMG:  Solving for p_rgh, Initial residual = 1.37702e-05, Final residual = 6.27884e-07, No Iterations 1
GAMGPCG:  Solving for p_rgh, Initial residual = 6.28181e-07, Final residual = 3.22984e-11, No Iterations 2
time step continuity errors : sum local = 2.53044e-05, global = -2.53044e-05, cumulative = -0.0106
****
****Pressure range: 2.50404 Pa
****Max velocity: 0.0427835 m/s
****Phase change energy: -0.0919748 W
****Volume change: -3.01122e-08 m^3/s
DILUPBiCG:  Solving for H, Initial residual = 1.5208e-05, Final residual = 6.73336e-13, No Iterations 1
DILUPBiCG:  Solving for H, Initial residual = 1.31959e-07, Final residual = 3.2468e-15, No Iterations 1
DILUPBiCG:  Solving for H, Initial residual = 1.0689e-08, Final residual = 1.10833e-15, No Iterations 1
ExecutionTime = 4.47 s  ClockTime = 5 s

Courant Number mean: 0.00752807 max: 0.0136956
Interface Courant Number mean: 1.26522e-05 max: 0.00687299
Fourier number mean: 0.101129 max: 0.249941
deltaT = 8.40336e-07
Time = 0.00617731

MULES: Solving for alpha1
Liquid phase volume fraction = 0.00500158  Min(alpha1) = 0  Max(alpha1) = 1
MULES: Solving for alpha1
Liquid phase volume fraction = 0.00500172  Min(alpha1) = 0  Max(alpha1) = 1
MULES: Solving for alpha1
Liquid phase volume fraction = 0.00500186  Min(alpha1) = 0  Max(alpha1) = 1
PIMPLE: iteration 1
GAMG:  Solving for p_rgh, Initial residual = 0.00014283, Final residual = 6.56539e-07, No Iterations 1
GAMG:  Solving for p_rgh, Initial residual = 6.56138e-07, Final residual = 2.08245e-08, No Iterations 3
time step continuity errors : sum local = 2.53056e-05, global = -2.53056e-05, cumulative = -0.0106253
GAMG:  Solving for p_rgh, Initial residual = 1.37721e-05, Final residual = 6.28113e-07, No Iterations 1
